lig_23482
     RDKit          3D

 31 33  0  0  1  0  0  0  0  0999 V2000
   45.2463    9.5022    0.3176 C   0  0  0  0  0  0  0  0  0  0  0  0
   44.9821   10.8599    0.5849 C   0  0  0  0  0  0  0  0  0  0  0  0
   45.9743   11.7010    1.1368 C   0  0  0  0  0  0  0  0  0  0  0  0
   47.2564   11.1446    1.3636 C   0  0  0  0  0  0  0  0  0  0  0  0
   47.5249    9.7778    1.1700 C   0  0  0  0  0  0  0  0  0  0  0  0
   46.5151    8.9501    0.6338 C   0  0  0  0  0  0  0  0  0  0  0  0
   48.8114    9.3318    1.4992 N   0  0  0  0  0  0  0  0  0  0  0  0
   49.1331    7.9440    1.7971 C   0  0  0  0  0  0  0  0  0  0  0  0
   50.6509    7.7610    1.6932 C   0  0  0  0  0  0  0  0  0  0  0  0
   51.1153    6.3617    2.1221 C   0  0  0  0  0  0  0  0  0  0  0  0
   50.5998    6.0598    3.4653 N   0  0  0  0  0  0  0  0  0  0  0  0
   49.1352    6.1503    3.6209 C   0  0  0  0  0  0  0  0  0  0  0  0
   48.6585    7.5567    3.2140 C   0  0  0  0  0  0  0  0  0  0  0  0
   51.6259    5.3250    4.6611 S   0  0  0  0  0  0  0  0  0  0  0  0
   52.9336    6.0051    4.6142 O   0  0  0  0  0  0  0  0  0  0  0  0
   50.8680    5.2730    5.9186 O   0  0  0  0  0  0  0  0  0  0  0  0
   51.8327    3.6129    4.0387 C   0  0  0  0  0  0  0  0  0  0  0  0
   45.6969   13.0994    1.4873 C   0  0  0  0  0  0  0  0  0  0  0  0
   46.1747   13.8514    2.5295 C   0  0  0  0  0  0  0  0  0  0  0  0
   45.7486   15.2073    2.5456 C   0  0  0  0  0  0  0  0  0  0  0  0
   44.8626   15.4892    1.5289 C   0  0  0  0  0  0  0  0  0  0  0  0
   44.6083   14.0711    0.5134 S   0  0  0  0  0  0  0  0  0  0  0  0
   44.1125   16.7198    1.1996 C   0  0  0  0  0  0  0  0  0  0  0  0
   43.5525   16.8294    0.0868 O   0  0  0  0  0  0  0  0  0  0  0  0
   44.0776   17.6485    2.0396 O   0  0  0  0  0  0  0  0  0  0  0  0
   46.0833   16.0698    3.5241 O   0  0  0  0  0  0  0  0  0  0  0  0
   47.3060   16.7534    3.3544 C   0  0  0  0  0  0  0  0  0  0  0  0
   47.6820   17.3975    4.6879 C   0  0  0  0  0  0  0  0  0  0  0  0
   48.7727   18.0134    4.7267 O   0  0  0  0  0  0  0  0  0  0  0  0
   46.8858   17.2876    5.6463 O   0  0  0  0  0  0  0  0  0  0  0  0
   47.2852   13.1627    3.9182 Br  0  0  0  0  0  0  0  0  0  0  0  0
  1  6  2  0
  1  2  1  0
  2  3  2  0
  3  4  1  0
  3 18  1  0
  4  5  2  0
  5  6  1  0
  5  7  1  0
  7  8  1  0
  8 13  1  0
  8  9  1  0
  9 10  1  0
 10 11  1  0
 11 12  1  0
 11 14  1  0
 12 13  1  0
 14 15  2  0
 14 16  2  0
 14 17  1  0
 18 22  1  0
 18 19  2  0
 19 20  1  0
 19 31  1  0
 20 21  2  0
 20 26  1  0
 21 22  1  0
 21 23  1  0
 23 24  2  0
 23 25  1  0
 26 27  1  0
 27 28  1  0
 28 29  2  0
 28 30  1  0
M  CHG  2  25  -1  30  -1
M  END
