lig_23469
     RDKit          3D

 29 31  0  0  1  0  0  0  0  0999 V2000
   52.2900    6.8388    4.3355 C   0  0  0  0  0  0  0  0  0  0  0  0
   50.9905    6.5363    4.7578 C   0  0  0  0  0  0  0  0  0  0  0  0
   49.8923    6.8858    3.9483 C   0  0  0  0  0  0  0  0  0  0  0  0
   50.0975    7.5224    2.7135 C   0  0  0  0  0  0  0  0  0  0  0  0
   51.3925    7.7552    2.2418 C   0  0  0  0  0  0  0  0  0  0  0  0
   52.4655    7.3776    3.0528 C   0  0  0  0  0  0  0  0  0  0  0  0
   48.9680    7.8384    1.8585 C   0  0  0  0  0  0  0  0  0  0  0  0
   48.2789    6.8856    1.4524 O   0  0  0  0  0  0  0  0  0  0  0  0
   48.7205    9.1425    1.5993 N   0  0  0  0  0  0  0  0  0  0  0  0
   47.4681    9.6990    1.1617 C   0  0  0  0  0  0  0  0  0  0  0  0
   46.4376    8.9190    0.6018 C   0  0  0  0  0  0  0  0  0  0  0  0
   45.1913    9.5005    0.3096 C   0  0  0  0  0  0  0  0  0  0  0  0
   44.9669   10.8629    0.5744 C   0  0  0  0  0  0  0  0  0  0  0  0
   45.9832   11.6700    1.1193 C   0  0  0  0  0  0  0  0  0  0  0  0
   47.2448   11.0770    1.3796 C   0  0  0  0  0  0  0  0  0  0  0  0
   45.7323   13.0795    1.4610 C   0  0  0  0  0  0  0  0  0  0  0  0
   46.2037   13.8246    2.5013 C   0  0  0  0  0  0  0  0  0  0  0  0
   45.7574   15.1715    2.5406 C   0  0  0  0  0  0  0  0  0  0  0  0
   44.8789   15.4572    1.5280 C   0  0  0  0  0  0  0  0  0  0  0  0
   44.6316   14.0483    0.5069 S   0  0  0  0  0  0  0  0  0  0  0  0
   44.1254   16.7077    1.2203 C   0  0  0  0  0  0  0  0  0  0  0  0
   43.5419   16.8397    0.1298 O   0  0  0  0  0  0  0  0  0  0  0  0
   44.1313   17.6189    2.0890 O   0  0  0  0  0  0  0  0  0  0  0  0
   46.0783   16.0166    3.5201 O   0  0  0  0  0  0  0  0  0  0  0  0
   47.2733   16.7623    3.3288 C   0  0  0  0  0  0  0  0  0  0  0  0
   47.6886   17.4021    4.6657 C   0  0  0  0  0  0  0  0  0  0  0  0
   48.7630   18.0172    4.7031 O   0  0  0  0  0  0  0  0  0  0  0  0
   46.8784   17.2689    5.6489 O   0  0  0  0  0  0  0  0  0  0  0  0
   47.3049   13.1592    3.9085 Br  0  0  0  0  0  0  0  0  0  0  0  0
  1  6  2  0
  1  2  1  0
  2  3  2  0
  3  4  1  0
  4  5  2  0
  4  7  1  0
  5  6  1  0
  7  8  2  0
  7  9  1  0
  9 10  1  0
 10 15  1  0
 10 11  2  0
 11 12  1  0
 12 13  2  0
 13 14  1  0
 14 15  2  0
 14 16  1  0
 16 20  1  0
 16 17  2  0
 17 18  1  0
 17 29  1  0
 18 19  2  0
 18 24  1  0
 19 20  1  0
 19 21  1  0
 21 22  2  0
 21 23  1  0
 24 25  1  0
 25 26  1  0
 26 27  2  0
 26 28  1  0
M  CHG  2  23  -1  28  -1
M  END
