lig_23474
     RDKit          3D

 28 30  0  0  1  0  0  0  0  0999 V2000
   45.2411    9.5281    0.3160 C   0  0  0  0  0  0  0  0  0  0  0  0
   44.9574   10.8823    0.5873 C   0  0  0  0  0  0  0  0  0  0  0  0
   45.9493   11.7182    1.1429 C   0  0  0  0  0  0  0  0  0  0  0  0
   47.2223   11.1599    1.3935 C   0  0  0  0  0  0  0  0  0  0  0  0
   47.5058    9.7982    1.1827 C   0  0  0  0  0  0  0  0  0  0  0  0
   46.5012    8.9797    0.6269 C   0  0  0  0  0  0  0  0  0  0  0  0
   48.7946    9.3513    1.5166 N   0  0  0  0  0  0  0  0  0  0  0  0
   49.0927    7.9544    1.8008 C   0  0  0  0  0  0  0  0  0  0  0  0
   49.3380    7.7088    3.3103 C   0  0  0  0  0  0  0  0  0  0  0  0
   48.2711    6.7829    3.9347 C   0  0  0  0  0  0  0  0  0  0  0  0
   48.4159    5.3223    3.4587 C   0  0  0  0  0  0  0  0  0  0  0  0
   49.8306    4.7826    3.7165 C   0  0  0  0  0  0  0  0  0  0  0  0
   50.8978    5.6888    3.0772 C   0  0  0  0  0  0  0  0  0  0  0  0
   50.7496    7.1416    3.5716 C   0  0  0  0  0  0  0  0  0  0  0  0
   45.6779   13.1168    1.4867 C   0  0  0  0  0  0  0  0  0  0  0  0
   46.1646   13.8698    2.5252 C   0  0  0  0  0  0  0  0  0  0  0  0
   45.7298   15.2150    2.5525 C   0  0  0  0  0  0  0  0  0  0  0  0
   44.8442   15.4993    1.5435 C   0  0  0  0  0  0  0  0  0  0  0  0
   44.5829   14.0883    0.5235 S   0  0  0  0  0  0  0  0  0  0  0  0
   44.1072   16.7429    1.2183 C   0  0  0  0  0  0  0  0  0  0  0  0
   43.5261   16.8514    0.1189 O   0  0  0  0  0  0  0  0  0  0  0  0
   44.0793   17.6727    2.0574 O   0  0  0  0  0  0  0  0  0  0  0  0
   46.0790   16.0786    3.5183 O   0  0  0  0  0  0  0  0  0  0  0  0
   47.3062   16.7580    3.3514 C   0  0  0  0  0  0  0  0  0  0  0  0
   47.6788   17.4051    4.6819 C   0  0  0  0  0  0  0  0  0  0  0  0
   48.7704   18.0145    4.7185 O   0  0  0  0  0  0  0  0  0  0  0  0
   46.8792   17.2729    5.6444 O   0  0  0  0  0  0  0  0  0  0  0  0
   47.2794   13.2115    3.9183 Br  0  0  0  0  0  0  0  0  0  0  0  0
  1  6  2  0
  1  2  1  0
  2  3  2  0
  3  4  1  0
  3 15  1  0
  4  5  2  0
  5  6  1  0
  5  7  1  0
  7  8  1  0
  8  9  1  0
  9 14  1  0
  9 10  1  0
 10 11  1  0
 11 12  1  0
 12 13  1  0
 13 14  1  0
 15 19  1  0
 15 16  2  0
 16 17  1  0
 16 28  1  0
 17 18  2  0
 17 23  1  0
 18 19  1  0
 18 20  1  0
 20 21  2  0
 20 22  1  0
 23 24  1  0
 24 25  1  0
 25 26  2  0
 25 27  1  0
M  CHG  2  22  -1  27  -1
M  END
