lig_23479
     RDKit          3D

 30 32  0  0  1  0  0  0  0  0999 V2000
   45.1983    9.5130    0.3192 C   0  0  0  0  0  0  0  0  0  0  0  0
   44.9382   10.8715    0.5940 C   0  0  0  0  0  0  0  0  0  0  0  0
   45.9424   11.6947    1.1499 C   0  0  0  0  0  0  0  0  0  0  0  0
   47.2120   11.1240    1.4011 C   0  0  0  0  0  0  0  0  0  0  0  0
   47.4756    9.7592    1.1716 C   0  0  0  0  0  0  0  0  0  0  0  0
   46.4554    8.9501    0.6208 C   0  0  0  0  0  0  0  0  0  0  0  0
   48.7581    9.2839    1.4941 N   0  0  0  0  0  0  0  0  0  0  0  0
   49.0006    7.8768    1.7845 C   0  0  0  0  0  0  0  0  0  0  0  0
   50.5053    7.5691    1.6737 C   0  0  0  0  0  0  0  0  0  0  0  0
   50.7809    6.1010    2.0392 C   0  0  0  0  0  0  0  0  0  0  0  0
   50.3041    5.8473    3.4068 N   0  0  0  0  0  0  0  0  0  0  0  0
   48.8479    6.0200    3.5230 C   0  0  0  0  0  0  0  0  0  0  0  0
   48.4603    7.4710    3.1722 C   0  0  0  0  0  0  0  0  0  0  0  0
   51.0989    5.5116    4.4533 C   0  0  0  0  0  0  0  0  0  0  0  0
   50.6519    5.2732    5.5754 O   0  0  0  0  0  0  0  0  0  0  0  0
   52.6153    5.4320    4.2539 C   0  0  0  0  0  0  0  0  0  0  0  0
   45.6859   13.0995    1.4854 C   0  0  0  0  0  0  0  0  0  0  0  0
   46.1758   13.8586    2.5185 C   0  0  0  0  0  0  0  0  0  0  0  0
   45.7388   15.2071    2.5485 C   0  0  0  0  0  0  0  0  0  0  0  0
   44.8573   15.4898    1.5351 C   0  0  0  0  0  0  0  0  0  0  0  0
   44.5987   14.0749    0.5183 S   0  0  0  0  0  0  0  0  0  0  0  0
   44.1169   16.7317    1.2145 C   0  0  0  0  0  0  0  0  0  0  0  0
   43.5449   16.8407    0.1107 O   0  0  0  0  0  0  0  0  0  0  0  0
   44.0776   17.6537    2.0624 O   0  0  0  0  0  0  0  0  0  0  0  0
   46.0792   16.0720    3.5189 O   0  0  0  0  0  0  0  0  0  0  0  0
   47.3009   16.7558    3.3518 C   0  0  0  0  0  0  0  0  0  0  0  0
   47.6795   17.4013    4.6862 C   0  0  0  0  0  0  0  0  0  0  0  0
   48.7722   18.0142    4.7181 O   0  0  0  0  0  0  0  0  0  0  0  0
   46.8793   17.2738    5.6505 O   0  0  0  0  0  0  0  0  0  0  0  0
   47.2809   13.1999    3.9172 Br  0  0  0  0  0  0  0  0  0  0  0  0
  1  6  2  0
  1  2  1  0
  2  3  2  0
  3  4  1  0
  3 17  1  0
  4  5  2  0
  5  6  1  0
  5  7  1  0
  7  8  1  0
  8 13  1  0
  8  9  1  0
  9 10  1  0
 10 11  1  0
 11 12  1  0
 11 14  1  0
 12 13  1  0
 14 15  2  0
 14 16  1  0
 17 21  1  0
 17 18  2  0
 18 19  1  0
 18 30  1  0
 19 20  2  0
 19 25  1  0
 20 21  1  0
 20 22  1  0
 22 23  2  0
 22 24  1  0
 25 26  1  0
 26 27  1  0
 27 28  2  0
 27 29  1  0
M  CHG  2  24  -1  29  -1
M  END
