lig_20669_2qbr
     RDKit          3D

 28 30  0  0  1  0  0  0  0  0999 V2000
   50.5510    5.8507   -1.7542 C   0  0  0  0  0  0  0  0  0  0  0  0
   49.2339    5.5962   -1.3252 C   0  0  0  0  0  0  0  0  0  0  0  0
   48.7311    6.2377   -0.1769 C   0  0  0  0  0  0  0  0  0  0  0  0
   49.5383    7.1443    0.5422 C   0  0  0  0  0  0  0  0  0  0  0  0
   50.8593    7.3900    0.1135 C   0  0  0  0  0  0  0  0  0  0  0  0
   51.3648    6.7458   -1.0330 C   0  0  0  0  0  0  0  0  0  0  0  0
   49.0023    7.8419    1.7783 C   0  0  0  0  0  0  0  0  0  0  0  0
   48.7406    9.2700    1.5958 N   0  0  0  0  0  0  0  0  0  0  0  0
   47.4781    9.7591    1.2085 C   0  0  0  0  0  0  0  0  0  0  0  0
   46.4599    8.9585    0.6449 C   0  0  0  0  0  0  0  0  0  0  0  0
   45.2087    9.5221    0.3179 C   0  0  0  0  0  0  0  0  0  0  0  0
   44.9483   10.8819    0.5799 C   0  0  0  0  0  0  0  0  0  0  0  0
   45.9507   11.7041    1.1435 C   0  0  0  0  0  0  0  0  0  0  0  0
   47.2156   11.1281    1.4154 C   0  0  0  0  0  0  0  0  0  0  0  0
   45.6882   13.1085    1.4806 C   0  0  0  0  0  0  0  0  0  0  0  0
   46.1709   13.8655    2.5171 C   0  0  0  0  0  0  0  0  0  0  0  0
   45.7333   15.2119    2.5464 C   0  0  0  0  0  0  0  0  0  0  0  0
   44.8454   15.4967    1.5401 C   0  0  0  0  0  0  0  0  0  0  0  0
   44.5840   14.0831    0.5241 S   0  0  0  0  0  0  0  0  0  0  0  0
   44.0990   16.7406    1.2332 C   0  0  0  0  0  0  0  0  0  0  0  0
   43.5017   16.8574    0.1429 O   0  0  0  0  0  0  0  0  0  0  0  0
   44.0790   17.6598    2.0861 O   0  0  0  0  0  0  0  0  0  0  0  0
   46.0788   16.0728    3.5183 O   0  0  0  0  0  0  0  0  0  0  0  0
   47.3050   16.7537    3.3512 C   0  0  0  0  0  0  0  0  0  0  0  0
   47.6803   17.4024    4.6835 C   0  0  0  0  0  0  0  0  0  0  0  0
   48.7706   18.0178    4.7183 O   0  0  0  0  0  0  0  0  0  0  0  0
   46.8792   17.2748    5.6463 O   0  0  0  0  0  0  0  0  0  0  0  0
   47.2790   13.2125    3.9178 Br  0  0  0  0  0  0  0  0  0  0  0  0
  1  6  2  0
  1  2  1  0
  2  3  2  0
  3  4  1  0
  4  5  2  0
  4  7  1  0
  5  6  1  0
  7  8  1  0
  8  9  1  0
  9 14  1  0
  9 10  2  0
 10 11  1  0
 11 12  2  0
 12 13  1  0
 13 14  2  0
 13 15  1  0
 15 19  1  0
 15 16  2  0
 16 17  1  0
 16 28  1  0
 17 18  2  0
 17 23  1  0
 18 19  1  0
 18 20  1  0
 20 21  2  0
 20 22  1  0
 23 24  1  0
 24 25  1  0
 25 26  2  0
 25 27  1  0
M  CHG  2  22  -1  27  -1
M  END
