lig_23466
     RDKit          3D

 21 22  0  0  1  0  0  0  0  0999 V2000
   45.2074    9.5207    0.3180 C   0  0  0  0  0  0  0  0  0  0  0  0
   44.9392   10.8772    0.5955 C   0  0  0  0  0  0  0  0  0  0  0  0
   45.9456   11.7079    1.1443 C   0  0  0  0  0  0  0  0  0  0  0  0
   47.2207   11.1482    1.3995 C   0  0  0  0  0  0  0  0  0  0  0  0
   47.4735    9.7813    1.1700 C   0  0  0  0  0  0  0  0  0  0  0  0
   46.4644    8.9641    0.6246 C   0  0  0  0  0  0  0  0  0  0  0  0
   48.7207    9.2555    1.5000 N   0  0  0  0  0  0  0  0  0  0  0  0
   45.6822   13.1068    1.4844 C   0  0  0  0  0  0  0  0  0  0  0  0
   46.1715   13.8661    2.5146 C   0  0  0  0  0  0  0  0  0  0  0  0
   45.7306   15.2127    2.5398 C   0  0  0  0  0  0  0  0  0  0  0  0
   44.8405   15.4949    1.5374 C   0  0  0  0  0  0  0  0  0  0  0  0
   44.5761   14.0753    0.5247 S   0  0  0  0  0  0  0  0  0  0  0  0
   44.0984   16.7392    1.2315 C   0  0  0  0  0  0  0  0  0  0  0  0
   43.5158   16.8548    0.1340 O   0  0  0  0  0  0  0  0  0  0  0  0
   44.0791   17.6573    2.0812 O   0  0  0  0  0  0  0  0  0  0  0  0
   46.0789   16.0735    3.5122 O   0  0  0  0  0  0  0  0  0  0  0  0
   47.3055   16.7473    3.3454 C   0  0  0  0  0  0  0  0  0  0  0  0
   47.6844   17.4029    4.6726 C   0  0  0  0  0  0  0  0  0  0  0  0
   48.7724   18.0185    4.7167 O   0  0  0  0  0  0  0  0  0  0  0  0
   46.8790   17.2754    5.6283 O   0  0  0  0  0  0  0  0  0  0  0  0
   47.2791   13.2179    3.9177 Br  0  0  0  0  0  0  0  0  0  0  0  0
  1  6  2  0
  1  2  1  0
  2  3  2  0
  3  4  1  0
  3  8  1  0
  4  5  2  0
  5  6  1  0
  5  7  1  0
  8 12  1  0
  8  9  2  0
  9 10  1  0
  9 21  1  0
 10 11  2  0
 10 16  1  0
 11 12  1  0
 11 13  1  0
 13 14  2  0
 13 15  1  0
 16 17  1  0
 17 18  1  0
 18 19  2  0
 18 20  1  0
M  CHG  2  15  -1  20  -1
M  END
