lig_23486
     RDKit          3D

 37 40  0  0  1  0  0  0  0  0999 V2000
   52.0858    1.7887    6.6333 C   0  0  0  0  0  0  0  0  0  0  0  0
   53.2911    1.7253    5.9066 C   0  0  0  0  0  0  0  0  0  0  0  0
   53.3657    2.2714    4.6122 C   0  0  0  0  0  0  0  0  0  0  0  0
   52.2286    2.8696    4.0274 C   0  0  0  0  0  0  0  0  0  0  0  0
   51.0221    2.9386    4.7598 C   0  0  0  0  0  0  0  0  0  0  0  0
   50.9555    2.4022    6.0603 C   0  0  0  0  0  0  0  0  0  0  0  0
   52.3076    3.4077    2.6110 C   0  0  0  0  0  0  0  0  0  0  0  0
   52.3803    5.2484    2.5926 S   0  0  0  0  0  0  0  0  0  0  0  0
   52.9614    5.6736    1.3119 O   0  0  0  0  0  0  0  0  0  0  0  0
   52.9675    5.7203    3.8589 O   0  0  0  0  0  0  0  0  0  0  0  0
   50.6943    5.6596    2.5659 N   0  0  0  0  0  0  0  0  0  0  0  0
   49.9418    5.6556    1.2935 C   0  0  0  0  0  0  0  0  0  0  0  0
   49.6923    7.0984    0.8026 C   0  0  0  0  0  0  0  0  0  0  0  0
   49.0075    7.9348    1.8970 C   0  0  0  0  0  0  0  0  0  0  0  0
   49.8676    7.8969    3.1750 C   0  0  0  0  0  0  0  0  0  0  0  0
   50.0877    6.4527    3.6485 C   0  0  0  0  0  0  0  0  0  0  0  0
   48.7934    9.3139    1.4829 N   0  0  0  0  0  0  0  0  0  0  0  0
   47.5152    9.7778    1.1454 C   0  0  0  0  0  0  0  0  0  0  0  0
   46.5010    8.9569    0.6032 C   0  0  0  0  0  0  0  0  0  0  0  0
   45.2324    9.5041    0.3176 C   0  0  0  0  0  0  0  0  0  0  0  0
   44.9638   10.8613    0.5881 C   0  0  0  0  0  0  0  0  0  0  0  0
   45.9651   11.6954    1.1313 C   0  0  0  0  0  0  0  0  0  0  0  0
   47.2408   11.1387    1.3748 C   0  0  0  0  0  0  0  0  0  0  0  0
   45.6982   13.0906    1.4818 C   0  0  0  0  0  0  0  0  0  0  0  0
   46.2079   13.8240    2.5235 C   0  0  0  0  0  0  0  0  0  0  0  0
   45.7502   15.1722    2.5575 C   0  0  0  0  0  0  0  0  0  0  0  0
   44.8581   15.4651    1.5550 C   0  0  0  0  0  0  0  0  0  0  0  0
   44.5878   14.0634    0.5345 S   0  0  0  0  0  0  0  0  0  0  0  0
   44.1141   16.7104    1.2490 C   0  0  0  0  0  0  0  0  0  0  0  0
   43.5419   16.8405    0.1444 O   0  0  0  0  0  0  0  0  0  0  0  0
   44.0791   17.6196    2.1129 O   0  0  0  0  0  0  0  0  0  0  0  0
   46.0791   16.0496    3.5196 O   0  0  0  0  0  0  0  0  0  0  0  0
   47.3050   16.7339    3.3587 C   0  0  0  0  0  0  0  0  0  0  0  0
   47.6800   17.3953    4.6869 C   0  0  0  0  0  0  0  0  0  0  0  0
   48.7667   18.0165    4.7184 O   0  0  0  0  0  0  0  0  0  0  0  0
   46.8789   17.2738    5.6511 O   0  0  0  0  0  0  0  0  0  0  0  0
   47.2580   13.2773    3.7545 Cl  0  0  0  0  0  0  0  0  0  0  0  0
  1  6  2  0
  1  2  1  0
  2  3  2  0
  3  4  1  0
  4  5  2  0
  4  7  1  0
  5  6  1  0
  7  8  1  0
  8  9  2  0
  8 10  2  0
  8 11  1  0
 11 16  1  0
 11 12  1  0
 12 13  1  0
 13 14  1  0
 14 15  1  0
 14 17  1  0
 15 16  1  0
 17 18  1  0
 18 23  1  0
 18 19  2  0
 19 20  1  0
 20 21  2  0
 21 22  1  0
 22 23  2  0
 22 24  1  0
 24 28  1  0
 24 25  2  0
 25 26  1  0
 25 37  1  0
 26 27  2  0
 26 32  1  0
 27 28  1  0
 27 29  1  0
 29 30  2  0
 29 31  1  0
 32 33  1  0
 33 34  1  0
 34 35  2  0
 34 36  1  0
M  CHG  2  31  -1  36  -1
M  END
