lig_ejm_43
     RDKit          3D

 23 24  0  0  1  0  0  0  0  0999 V2000
   -5.3655   -3.6294  -16.2314 C   0  0  0  0  0  0  0  0  0  0  0  0
   -4.7613   -4.8968  -16.2097 C   0  0  0  0  0  0  0  0  0  0  0  0
   -5.5168   -6.0309  -15.8511 C   0  0  0  0  0  0  0  0  0  0  0  0
   -6.8819   -5.9047  -15.5001 C   0  0  0  0  0  0  0  0  0  0  0  0
   -7.4850   -4.6267  -15.5391 C   0  0  0  0  0  0  0  0  0  0  0  0
   -6.7260   -3.4992  -15.8965 C   0  0  0  0  0  0  0  0  0  0  0  0
   -9.1629   -4.3841  -15.1947 Cl  0  0  0  0  0  0  0  0  0  0  0  0
   -7.6921   -7.1092  -15.0922 C   0  0  0  0  0  0  0  0  0  0  0  0
   -8.1050   -7.2064  -13.9363 O   0  0  0  0  0  0  0  0  0  0  0  0
   -7.8801   -8.0181  -16.0656 N   0  0  0  0  0  0  0  0  0  0  0  0
   -8.6994   -9.1763  -16.0859 C   0  0  0  0  0  0  0  0  0  0  0  0
   -9.5528   -9.5798  -15.0305 C   0  0  0  0  0  0  0  0  0  0  0  0
  -10.3589  -10.7178  -15.2152 C   0  0  0  0  0  0  0  0  0  0  0  0
  -10.3623  -11.4572  -16.3408 N   0  0  0  0  0  0  0  0  0  0  0  0
   -9.5356  -11.1058  -17.3528 C   0  0  0  0  0  0  0  0  0  0  0  0
   -8.7090   -9.9562  -17.2628 C   0  0  0  0  0  0  0  0  0  0  0  0
   -9.5611  -11.9163  -18.5193 N   0  0  0  0  0  0  0  0  0  0  0  0
   -8.6263  -12.0716  -19.4767 C   0  0  0  0  0  0  0  0  0  0  0  0
   -7.5511  -11.4671  -19.5315 O   0  0  0  0  0  0  0  0  0  0  0  0
   -8.9514  -13.1268  -20.5456 C   0  0  0  0  0  0  0  0  0  0  0  0
   -7.7905  -14.1466  -20.7376 C   0  0  0  0  0  0  0  0  0  0  0  0
   -9.0860  -12.5240  -21.9414 C   0  0  0  0  0  0  0  0  0  0  0  0
   -4.7269   -7.5578  -15.8529 Cl  0  0  0  0  0  0  0  0  0  0  0  0
  1  6  2  0
  1  2  1  0
  2  3  2  0
  3  4  1  0
  3 23  1  0
  4  5  2  0
  4  8  1  0
  5  6  1  0
  5  7  1  0
  8  9  2  0
  8 10  1  0
 10 11  1  0
 11 16  1  0
 11 12  2  0
 12 13  1  0
 13 14  2  0
 14 15  1  0
 15 16  2  0
 15 17  1  0
 17 18  1  0
 18 19  2  0
 18 20  1  0
 20 21  1  0
 20 22  1  0
M  END
