lig_ejm_46
     RDKit          3D

 23 25  0  0  1  0  0  0  0  0999 V2000
   -5.3551   -3.6988  -16.2343 C   0  0  0  0  0  0  0  0  0  0  0  0
   -4.7691   -4.9763  -16.2133 C   0  0  0  0  0  0  0  0  0  0  0  0
   -5.5322   -6.1012  -15.8489 C   0  0  0  0  0  0  0  0  0  0  0  0
   -6.8971   -5.9556  -15.4808 C   0  0  0  0  0  0  0  0  0  0  0  0
   -7.4860   -4.6658  -15.5235 C   0  0  0  0  0  0  0  0  0  0  0  0
   -6.7149   -3.5494  -15.9013 C   0  0  0  0  0  0  0  0  0  0  0  0
   -9.1609   -4.4168  -15.1573 Cl  0  0  0  0  0  0  0  0  0  0  0  0
   -7.7099   -7.1391  -15.0412 C   0  0  0  0  0  0  0  0  0  0  0  0
   -8.1270   -7.2082  -13.8848 O   0  0  0  0  0  0  0  0  0  0  0  0
   -7.9085   -8.0557  -16.0048 N   0  0  0  0  0  0  0  0  0  0  0  0
   -8.7302   -9.2129  -16.0071 C   0  0  0  0  0  0  0  0  0  0  0  0
   -9.5845   -9.6010  -14.9550 C   0  0  0  0  0  0  0  0  0  0  0  0
  -10.3859  -10.7400  -15.1393 C   0  0  0  0  0  0  0  0  0  0  0  0
  -10.3615  -11.5002  -16.2562 N   0  0  0  0  0  0  0  0  0  0  0  0
   -9.5413  -11.1483  -17.2750 C   0  0  0  0  0  0  0  0  0  0  0  0
   -8.7209   -9.9970  -17.1753 C   0  0  0  0  0  0  0  0  0  0  0  0
   -9.5567  -11.9338  -18.4642 N   0  0  0  0  0  0  0  0  0  0  0  0
   -8.6358  -12.0325  -19.4477 C   0  0  0  0  0  0  0  0  0  0  0  0
   -7.5743  -11.4049  -19.4949 O   0  0  0  0  0  0  0  0  0  0  0  0
   -9.0140  -13.0112  -20.5101 C   0  0  0  0  0  0  0  0  0  0  0  0
   -8.6036  -12.7155  -21.9369 C   0  0  0  0  0  0  0  0  0  0  0  0
   -7.9023  -13.8059  -21.1663 C   0  0  0  0  0  0  0  0  0  0  0  0
   -4.7565   -7.6418  -15.8644 Cl  0  0  0  0  0  0  0  0  0  0  0  0
  1  6  2  0
  1  2  1  0
  2  3  2  0
  3  4  1  0
  3 23  1  0
  4  5  2  0
  4  8  1  0
  5  6  1  0
  5  7  1  0
  8  9  2  0
  8 10  1  0
 10 11  1  0
 11 16  1  0
 11 12  2  0
 12 13  1  0
 13 14  2  0
 14 15  1  0
 15 16  2  0
 15 17  1  0
 17 18  1  0
 18 19  2  0
 18 20  1  0
 20 22  1  0
 20 21  1  0
 21 22  1  0
M  END
