lig_ejm_54
     RDKit          3D

 23 24  0  0  1  0  0  0  0  0999 V2000
   -5.3578   -3.6575  -16.2147 C   0  0  0  0  0  0  0  0  0  0  0  0
   -6.7173   -3.5185  -15.8797 C   0  0  0  0  0  0  0  0  0  0  0  0
   -7.4848   -4.6454  -15.5162 C   0  0  0  0  0  0  0  0  0  0  0  0
   -6.8879   -5.9328  -15.4883 C   0  0  0  0  0  0  0  0  0  0  0  0
   -5.5234   -6.0640  -15.8525 C   0  0  0  0  0  0  0  0  0  0  0  0
   -4.7659   -4.9308  -16.2070 C   0  0  0  0  0  0  0  0  0  0  0  0
   -4.7348   -7.5990  -15.8694 Cl  0  0  0  0  0  0  0  0  0  0  0  0
   -7.6913   -7.1293  -15.0548 C   0  0  0  0  0  0  0  0  0  0  0  0
   -8.1104   -7.2012  -13.9013 O   0  0  0  0  0  0  0  0  0  0  0  0
   -7.8794   -8.0487  -16.0173 N   0  0  0  0  0  0  0  0  0  0  0  0
   -8.7120   -9.1989  -16.0189 C   0  0  0  0  0  0  0  0  0  0  0  0
   -9.5627   -9.5847  -14.9619 C   0  0  0  0  0  0  0  0  0  0  0  0
  -10.3712  -10.7186  -15.1360 C   0  0  0  0  0  0  0  0  0  0  0  0
  -10.3584  -11.4774  -16.2525 N   0  0  0  0  0  0  0  0  0  0  0  0
   -9.5337  -11.1357  -17.2710 C   0  0  0  0  0  0  0  0  0  0  0  0
   -8.7164   -9.9833  -17.1862 C   0  0  0  0  0  0  0  0  0  0  0  0
   -9.5727  -11.9161  -18.4574 N   0  0  0  0  0  0  0  0  0  0  0  0
   -8.6553  -12.0654  -19.4295 C   0  0  0  0  0  0  0  0  0  0  0  0
   -7.5631  -11.4966  -19.4761 O   0  0  0  0  0  0  0  0  0  0  0  0
   -9.0712  -12.9354  -20.3605 N   0  0  0  0  0  0  0  0  0  0  0  0
   -8.2828  -13.3939  -21.4965 C   0  0  0  0  0  0  0  0  0  0  0  0
   -8.6211  -12.6043  -22.7645 C   0  0  0  0  0  0  0  0  0  0  0  0
   -9.1623   -4.4118  -15.1498 Cl  0  0  0  0  0  0  0  0  0  0  0  0
  1  6  2  0
  1  2  1  0
  2  3  2  0
  3  4  1  0
  3 23  1  0
  4  5  2  0
  4  8  1  0
  5  6  1  0
  5  7  1  0
  8  9  2  0
  8 10  1  0
 10 11  1  0
 11 16  1  0
 11 12  2  0
 12 13  1  0
 13 14  2  0
 14 15  1  0
 15 16  2  0
 15 17  1  0
 17 18  1  0
 18 19  2  0
 18 20  1  0
 20 21  1  0
 21 22  1  0
M  END
