lig_ejm_47
     RDKit          3D

 24 26  0  0  1  0  0  0  0  0999 V2000
   -5.3552   -3.6498  -16.1974 C   0  0  0  0  0  0  0  0  0  0  0  0
   -6.7124   -3.5027  -15.8663 C   0  0  0  0  0  0  0  0  0  0  0  0
   -7.4893   -4.6185  -15.5050 C   0  0  0  0  0  0  0  0  0  0  0  0
   -6.9074   -5.9119  -15.4790 C   0  0  0  0  0  0  0  0  0  0  0  0
   -5.5421   -6.0562  -15.8413 C   0  0  0  0  0  0  0  0  0  0  0  0
   -4.7732   -4.9286  -16.1887 C   0  0  0  0  0  0  0  0  0  0  0  0
   -4.7624   -7.5959  -15.8531 Cl  0  0  0  0  0  0  0  0  0  0  0  0
   -7.7248   -7.0987  -15.0524 C   0  0  0  0  0  0  0  0  0  0  0  0
   -8.1332   -7.1859  -13.8948 O   0  0  0  0  0  0  0  0  0  0  0  0
   -7.9361   -7.9984  -16.0292 N   0  0  0  0  0  0  0  0  0  0  0  0
   -8.7528   -9.1577  -16.0420 C   0  0  0  0  0  0  0  0  0  0  0  0
   -9.5813   -9.5734  -14.9790 C   0  0  0  0  0  0  0  0  0  0  0  0
  -10.3744  -10.7163  -15.1640 C   0  0  0  0  0  0  0  0  0  0  0  0
  -10.3618  -11.4596  -16.2922 N   0  0  0  0  0  0  0  0  0  0  0  0
   -9.5555  -11.0907  -17.3151 C   0  0  0  0  0  0  0  0  0  0  0  0
   -8.7581   -9.9220  -17.2226 C   0  0  0  0  0  0  0  0  0  0  0  0
   -9.5627  -11.8828  -18.4971 N   0  0  0  0  0  0  0  0  0  0  0  0
   -8.6209  -12.0124  -19.4529 C   0  0  0  0  0  0  0  0  0  0  0  0
   -7.5620  -11.3849  -19.4767 O   0  0  0  0  0  0  0  0  0  0  0  0
   -8.9140  -13.0316  -20.5664 C   0  0  0  0  0  0  0  0  0  0  0  0
   -8.6629  -12.5253  -22.0018 C   0  0  0  0  0  0  0  0  0  0  0  0
   -8.0064  -13.8706  -22.3183 C   0  0  0  0  0  0  0  0  0  0  0  0
   -7.7574  -14.0240  -20.8178 C   0  0  0  0  0  0  0  0  0  0  0  0
   -9.1624   -4.3637  -15.1457 Cl  0  0  0  0  0  0  0  0  0  0  0  0
  1  6  2  0
  1  2  1  0
  2  3  2  0
  3  4  1  0
  3 24  1  0
  4  5  2  0
  4  8  1  0
  5  6  1  0
  5  7  1  0
  8  9  2  0
  8 10  1  0
 10 11  1  0
 11 16  1  0
 11 12  2  0
 12 13  1  0
 13 14  2  0
 14 15  1  0
 15 16  2  0
 15 17  1  0
 17 18  1  0
 18 19  2  0
 18 20  1  0
 20 23  1  0
 20 21  1  0
 21 22  1  0
 22 23  1  0
M  END
