lig_ejm_48
     RDKit          3D

 25 27  0  0  1  0  0  0  0  0999 V2000
   -5.3627   -3.6562  -16.1906 C   0  0  0  0  0  0  0  0  0  0  0  0
   -4.7787   -4.9337  -16.1880 C   0  0  0  0  0  0  0  0  0  0  0  0
   -5.5424   -6.0629  -15.8358 C   0  0  0  0  0  0  0  0  0  0  0  0
   -6.9069   -5.9224  -15.4708 C   0  0  0  0  0  0  0  0  0  0  0  0
   -7.4922   -4.6311  -15.4928 C   0  0  0  0  0  0  0  0  0  0  0  0
   -6.7190   -3.5118  -15.8528 C   0  0  0  0  0  0  0  0  0  0  0  0
   -9.1623   -4.3804  -15.1214 Cl  0  0  0  0  0  0  0  0  0  0  0  0
   -7.7233   -7.1134  -15.0554 C   0  0  0  0  0  0  0  0  0  0  0  0
   -8.1264   -7.2140  -13.8967 O   0  0  0  0  0  0  0  0  0  0  0  0
   -7.9412   -8.0000  -16.0435 N   0  0  0  0  0  0  0  0  0  0  0  0
   -8.7585   -9.1619  -16.0633 C   0  0  0  0  0  0  0  0  0  0  0  0
   -9.5870   -9.5827  -15.0024 C   0  0  0  0  0  0  0  0  0  0  0  0
  -10.3763  -10.7278  -15.1910 C   0  0  0  0  0  0  0  0  0  0  0  0
  -10.3614  -11.4679  -16.3194 N   0  0  0  0  0  0  0  0  0  0  0  0
   -9.5575  -11.0951  -17.3422 C   0  0  0  0  0  0  0  0  0  0  0  0
   -8.7610   -9.9243  -17.2472 C   0  0  0  0  0  0  0  0  0  0  0  0
   -9.5625  -11.9034  -18.5141 N   0  0  0  0  0  0  0  0  0  0  0  0
   -8.6606  -11.9969  -19.5063 C   0  0  0  0  0  0  0  0  0  0  0  0
   -7.6418  -11.3079  -19.5881 O   0  0  0  0  0  0  0  0  0  0  0  0
   -8.9247  -13.0847  -20.5652 C   0  0  0  0  0  0  0  0  0  0  0  0
   -8.9572  -12.5701  -22.0139 C   0  0  0  0  0  0  0  0  0  0  0  0
   -8.4102  -13.6664  -22.9344 C   0  0  0  0  0  0  0  0  0  0  0  0
   -7.7416  -14.6866  -22.0206 C   0  0  0  0  0  0  0  0  0  0  0  0
   -7.6724  -14.0028  -20.6585 C   0  0  0  0  0  0  0  0  0  0  0  0
   -4.7620   -7.6018  -15.8533 Cl  0  0  0  0  0  0  0  0  0  0  0  0
  1  6  2  0
  1  2  1  0
  2  3  2  0
  3  4  1  0
  3 25  1  0
  4  5  2  0
  4  8  1  0
  5  6  1  0
  5  7  1  0
  8  9  2  0
  8 10  1  0
 10 11  1  0
 11 16  1  0
 11 12  2  0
 12 13  1  0
 13 14  2  0
 14 15  1  0
 15 16  2  0
 15 17  1  0
 17 18  1  0
 18 19  2  0
 18 20  1  0
 20 24  1  0
 20 21  1  0
 21 22  1  0
 22 23  1  0
 23 24  1  0
M  END
