lig_ejm_45
     RDKit          3D

 24 26  0  0  1  0  0  0  0  0999 V2000
   -5.3593   -3.6410  -16.2030 C   0  0  0  0  0  0  0  0  0  0  0  0
   -4.7748   -4.9180  -16.1991 C   0  0  0  0  0  0  0  0  0  0  0  0
   -5.5374   -6.0484  -15.8455 C   0  0  0  0  0  0  0  0  0  0  0  0
   -6.9029   -5.9091  -15.4832 C   0  0  0  0  0  0  0  0  0  0  0  0
   -7.4906   -4.6189  -15.5147 C   0  0  0  0  0  0  0  0  0  0  0  0
   -6.7175   -3.4985  -15.8728 C   0  0  0  0  0  0  0  0  0  0  0  0
   -9.1625   -4.3708  -15.1484 Cl  0  0  0  0  0  0  0  0  0  0  0  0
   -7.7142   -7.0985  -15.0517 C   0  0  0  0  0  0  0  0  0  0  0  0
   -8.1252   -7.1792  -13.8939 O   0  0  0  0  0  0  0  0  0  0  0  0
   -7.9143   -8.0102  -16.0203 N   0  0  0  0  0  0  0  0  0  0  0  0
   -8.7301   -9.1752  -16.0199 C   0  0  0  0  0  0  0  0  0  0  0  0
   -9.5662   -9.5758  -14.9563 C   0  0  0  0  0  0  0  0  0  0  0  0
  -10.3667  -10.7163  -15.1327 C   0  0  0  0  0  0  0  0  0  0  0  0
  -10.3622  -11.4650  -16.2560 N   0  0  0  0  0  0  0  0  0  0  0  0
   -9.5398  -11.1166  -17.2754 C   0  0  0  0  0  0  0  0  0  0  0  0
   -8.7272   -9.9574  -17.1911 C   0  0  0  0  0  0  0  0  0  0  0  0
   -9.5624  -11.9160  -18.4518 N   0  0  0  0  0  0  0  0  0  0  0  0
   -8.6555  -12.0363  -19.4383 C   0  0  0  0  0  0  0  0  0  0  0  0
   -7.5594  -11.4760  -19.4513 O   0  0  0  0  0  0  0  0  0  0  0  0
   -9.0625  -12.9425  -20.6104 C   0  0  0  0  0  0  0  0  0  0  0  0
   -7.8922  -13.3639  -21.4848 C   0  0  0  0  0  0  0  0  0  0  0  0
   -7.0388  -14.5520  -21.1047 C   0  0  0  0  0  0  0  0  0  0  0  0
   -7.9413  -14.6258  -22.3142 C   0  0  0  0  0  0  0  0  0  0  0  0
   -4.7515   -7.5847  -15.8530 Cl  0  0  0  0  0  0  0  0  0  0  0  0
  1  6  2  0
  1  2  1  0
  2  3  2  0
  3  4  1  0
  3 24  1  0
  4  5  2  0
  4  8  1  0
  5  6  1  0
  5  7  1  0
  8  9  2  0
  8 10  1  0
 10 11  1  0
 11 16  1  0
 11 12  2  0
 12 13  1  0
 13 14  2  0
 14 15  1  0
 15 16  2  0
 15 17  1  0
 17 18  1  0
 18 19  2  0
 18 20  1  0
 20 21  1  0
 21 23  1  0
 21 22  1  0
 22 23  1  0
M  END
