lig_ejm_50
     RDKit          3D

 22 23  0  0  1  0  0  0  0  0999 V2000
   -5.3502   -3.6877  -16.2344 C   0  0  0  0  0  0  0  0  0  0  0  0
   -4.7646   -4.9663  -16.2140 C   0  0  0  0  0  0  0  0  0  0  0  0
   -5.5301   -6.0920  -15.8502 C   0  0  0  0  0  0  0  0  0  0  0  0
   -6.8933   -5.9430  -15.4829 C   0  0  0  0  0  0  0  0  0  0  0  0
   -7.4837   -4.6542  -15.5274 C   0  0  0  0  0  0  0  0  0  0  0  0
   -6.7098   -3.5379  -15.9038 C   0  0  0  0  0  0  0  0  0  0  0  0
   -9.1610   -4.4127  -15.1682 Cl  0  0  0  0  0  0  0  0  0  0  0  0
   -7.7071   -7.1255  -15.0416 C   0  0  0  0  0  0  0  0  0  0  0  0
   -8.1268   -7.1889  -13.8858 O   0  0  0  0  0  0  0  0  0  0  0  0
   -7.8978   -8.0465  -16.0039 N   0  0  0  0  0  0  0  0  0  0  0  0
   -8.7165   -9.2065  -16.0059 C   0  0  0  0  0  0  0  0  0  0  0  0
   -9.5744   -9.5863  -14.9526 C   0  0  0  0  0  0  0  0  0  0  0  0
  -10.3796  -10.7215  -15.1333 C   0  0  0  0  0  0  0  0  0  0  0  0
  -10.3620  -11.4824  -16.2494 N   0  0  0  0  0  0  0  0  0  0  0  0
   -9.5317  -11.1460  -17.2633 C   0  0  0  0  0  0  0  0  0  0  0  0
   -8.7042   -9.9984  -17.1710 C   0  0  0  0  0  0  0  0  0  0  0  0
   -9.5620  -11.9430  -18.4412 N   0  0  0  0  0  0  0  0  0  0  0  0
   -8.6769  -12.0520  -19.4498 C   0  0  0  0  0  0  0  0  0  0  0  0
   -7.6135  -11.4339  -19.5265 O   0  0  0  0  0  0  0  0  0  0  0  0
   -9.0608  -13.0306  -20.5667 C   0  0  0  0  0  0  0  0  0  0  0  0
   -7.9832  -13.8971  -20.8712 O   0  0  0  0  0  0  0  0  0  0  0  0
   -4.7613   -7.6378  -15.8681 Cl  0  0  0  0  0  0  0  0  0  0  0  0
  1  6  2  0
  1  2  1  0
  2  3  2  0
  3  4  1  0
  3 22  1  0
  4  5  2  0
  4  8  1  0
  5  6  1  0
  5  7  1  0
  8  9  2  0
  8 10  1  0
 10 11  1  0
 11 16  1  0
 11 12  2  0
 12 13  1  0
 13 14  2  0
 14 15  1  0
 15 16  2  0
 15 17  1  0
 17 18  1  0
 18 19  2  0
 18 20  1  0
 20 21  1  0
M  END
