lig_ejm_31
     RDKit          3D

 21 22  0  0  1  0  0  0  0  0999 V2000
   -5.3542   -3.7038  -16.2347 C   0  0  0  0  0  0  0  0  0  0  0  0
   -4.7674   -4.9795  -16.2123 C   0  0  0  0  0  0  0  0  0  0  0  0
   -5.5290   -6.1026  -15.8438 C   0  0  0  0  0  0  0  0  0  0  0  0
   -6.8923   -5.9587  -15.4780 C   0  0  0  0  0  0  0  0  0  0  0  0
   -7.4820   -4.6699  -15.5255 C   0  0  0  0  0  0  0  0  0  0  0  0
   -6.7115   -3.5548  -15.9030 C   0  0  0  0  0  0  0  0  0  0  0  0
   -9.1561   -4.4143  -15.1653 Cl  0  0  0  0  0  0  0  0  0  0  0  0
   -7.7049   -7.1425  -15.0386 C   0  0  0  0  0  0  0  0  0  0  0  0
   -8.1157   -7.2179  -13.8805 O   0  0  0  0  0  0  0  0  0  0  0  0
   -7.9064   -8.0562  -16.0049 N   0  0  0  0  0  0  0  0  0  0  0  0
   -8.7268   -9.2125  -16.0105 C   0  0  0  0  0  0  0  0  0  0  0  0
   -9.5827   -9.5982  -14.9587 C   0  0  0  0  0  0  0  0  0  0  0  0
  -10.3835  -10.7354  -15.1418 C   0  0  0  0  0  0  0  0  0  0  0  0
  -10.3600  -11.4950  -16.2564 N   0  0  0  0  0  0  0  0  0  0  0  0
   -9.5337  -11.1511  -17.2721 C   0  0  0  0  0  0  0  0  0  0  0  0
   -8.7102  -10.0011  -17.1769 C   0  0  0  0  0  0  0  0  0  0  0  0
   -9.5619  -11.9452  -18.4509 N   0  0  0  0  0  0  0  0  0  0  0  0
   -8.6681  -12.0307  -19.4565 C   0  0  0  0  0  0  0  0  0  0  0  0
   -7.5932  -11.4361  -19.5018 O   0  0  0  0  0  0  0  0  0  0  0  0
   -9.0408  -12.9588  -20.6094 C   0  0  0  0  0  0  0  0  0  0  0  0
   -4.7465   -7.6388  -15.8551 Cl  0  0  0  0  0  0  0  0  0  0  0  0
  1  6  2  0
  1  2  1  0
  2  3  2  0
  3  4  1  0
  3 21  1  0
  4  5  2  0
  4  8  1  0
  5  6  1  0
  5  7  1  0
  8  9  2  0
  8 10  1  0
 10 11  1  0
 11 16  1  0
 11 12  2  0
 12 13  1  0
 13 14  2  0
 14 15  1  0
 15 16  2  0
 15 17  1  0
 17 18  1  0
 18 19  2  0
 18 20  1  0
M  END
