lig_jmc_23
     RDKit          3D

 24 26  0  0  1  0  0  0  0  0999 V2000
   -5.3561   -3.6960  -16.2319 C   0  0  0  0  0  0  0  0  0  0  0  0
   -4.7711   -4.9730  -16.2125 C   0  0  0  0  0  0  0  0  0  0  0  0
   -5.5375   -6.0962  -15.8494 C   0  0  0  0  0  0  0  0  0  0  0  0
   -6.9012   -5.9479  -15.4810 C   0  0  0  0  0  0  0  0  0  0  0  0
   -7.4878   -4.6562  -15.5249 C   0  0  0  0  0  0  0  0  0  0  0  0
   -6.7132   -3.5420  -15.9001 C   0  0  0  0  0  0  0  0  0  0  0  0
   -9.1604   -4.3992  -15.1603 Cl  0  0  0  0  0  0  0  0  0  0  0  0
   -7.7159   -7.1312  -15.0394 C   0  0  0  0  0  0  0  0  0  0  0  0
   -8.1374   -7.2005  -13.8846 O   0  0  0  0  0  0  0  0  0  0  0  0
   -7.9145   -8.0499  -15.9997 N   0  0  0  0  0  0  0  0  0  0  0  0
   -8.7390   -9.2024  -16.0025 C   0  0  0  0  0  0  0  0  0  0  0  0
   -9.5905   -9.5941  -14.9492 C   0  0  0  0  0  0  0  0  0  0  0  0
  -10.3879  -10.7346  -15.1369 C   0  0  0  0  0  0  0  0  0  0  0  0
  -10.3608  -11.4916  -16.2564 N   0  0  0  0  0  0  0  0  0  0  0  0
   -9.5379  -11.1376  -17.2716 C   0  0  0  0  0  0  0  0  0  0  0  0
   -8.7264   -9.9818  -17.1725 C   0  0  0  0  0  0  0  0  0  0  0  0
   -9.5493  -11.9279  -18.4566 N   0  0  0  0  0  0  0  0  0  0  0  0
   -8.6429  -12.0244  -19.4542 C   0  0  0  0  0  0  0  0  0  0  0  0
   -7.6011  -11.3701  -19.5211 O   0  0  0  0  0  0  0  0  0  0  0  0
   -9.0334  -13.0123  -20.5118 C   0  0  2  0  0  0  0  0  0  0  0  0
   -7.9809  -13.8692  -21.2029 C   0  0  1  0  0  0  0  0  0  0  0  0
   -8.6094  -12.7177  -21.9399 C   0  0  0  0  0  0  0  0  0  0  0  0
   -6.6479  -13.7206  -20.8637 F   0  0  0  0  0  0  0  0  0  0  0  0
   -4.7586   -7.6357  -15.8606 Cl  0  0  0  0  0  0  0  0  0  0  0  0
  1  6  2  0
  1  2  1  0
  2  3  2  0
  3  4  1  0
  3 24  1  0
  4  5  2  0
  4  8  1  0
  5  6  1  0
  5  7  1  0
  8  9  2  0
  8 10  1  0
 10 11  1  0
 11 16  1  0
 11 12  2  0
 12 13  1  0
 13 14  2  0
 14 15  1  0
 15 16  2  0
 15 17  1  0
 17 18  1  0
 18 19  2  0
 20 18  1  1
 20 22  1  0
 20 21  1  0
 21 22  1  0
 21 23  1  1
M  END
