4r
                    3D
 Schrodinger Suite 2019-4.
 33 35  0  0  1  0            999 V2000
   -0.2268    3.8742   17.2441 N   0  0  0  0  0  0
   -1.1201    3.1800   16.5173 N   0  0  0  0  0  0
   -0.8865    2.9141   15.1984 C   0  0  0  0  0  0
    0.3371    3.3182   14.6116 C   0  0  0  0  0  0
    1.2289    4.0441   15.3413 N   0  0  0  0  0  0
    0.9010    4.3029   16.6283 C   0  0  0  0  0  0
   -4.0217    0.8467   13.0644 N   0  0  0  0  0  0
   -3.4328    1.9519   12.5447 C   0  0  0  0  0  0
   -2.4213    2.6391   13.2169 C   0  0  0  0  0  0
   -2.0012    2.2172   14.4838 C   0  0  0  0  0  0
   -2.6442    1.1022   15.0362 C   0  0  0  0  0  0
   -3.6163    0.4212   14.2922 C   0  0  0  0  0  0
    1.5601    2.3569   10.5956 C   0  0  0  0  0  0
    1.9439    3.5678   11.1599 C   0  0  0  0  0  0
    1.5452    3.8815   12.4593 C   0  0  0  0  0  0
    0.7864    2.9782   13.2205 C   0  0  0  0  0  0
    0.4743    1.7370   12.6493 C   0  0  0  0  0  0
    0.8216    1.4456   11.3366 C   0  0  0  0  0  0
    1.7773    5.0876   17.3662 N   0  0  0  0  0  0
   -4.2333   -0.8715   14.8221 C   0  0  0  0  0  0
   -3.9443    2.5119   10.9933 Cl  0  0  0  0  0  0
    1.8961    2.0584    9.3203 F   0  0  0  0  0  0
   -5.1960   -1.3551   14.0326 F   0  0  0  0  0  0
   -3.2826   -1.7988   14.9353 F   0  0  0  0  0  0
   -4.7490   -0.6467   16.0278 F   0  0  0  0  0  0
   -1.9436    3.4824   12.7529 H   0  0  0  0  0  0
   -2.3534    0.7347   16.0093 H   0  0  0  0  0  0
    2.5219    4.2738   10.5804 H   0  0  0  0  0  0
    1.8180    4.8431   12.8661 H   0  0  0  0  0  0
   -0.0643    0.9923   13.2136 H   0  0  0  0  0  0
    0.5349    0.5020   10.8976 H   0  0  0  0  0  0
    2.4695    5.6368   16.8656 H   0  0  0  0  0  0
    1.5372    5.3169   18.3276 H   0  0  0  0  0  0
  1  2  1  0  0  0
  1  6  2  0  0  0
  2  3  2  0  0  0
  3  4  1  0  0  0
  3 10  1  0  0  0
  4  5  2  0  0  0
  4 16  1  0  0  0
  5  6  1  0  0  0
  6 19  1  0  0  0
  7  8  1  0  0  0
  7 12  2  0  0  0
  8  9  2  0  0  0
  8 21  1  0  0  0
  9 10  1  0  0  0
  9 26  1  0  0  0
 10 11  2  0  0  0
 11 12  1  0  0  0
 11 27  1  0  0  0
 12 20  1  0  0  0
 13 14  1  0  0  0
 13 18  2  0  0  0
 13 22  1  0  0  0
 14 15  2  0  0  0
 14 28  1  0  0  0
 15 16  1  0  0  0
 15 29  1  0  0  0
 16 17  2  0  0  0
 17 18  1  0  0  0
 17 30  1  0  0  0
 18 31  1  0  0  0
 19 32  1  0  0  0
 19 33  1  0  0  0
 20 23  1  0  0  0
 20 24  1  0  0  0
 20 25  1  0  0  0
M  END
> <r_mpc_ALogP>
4.5541

> <s_mpc_SMILES>
FC(F)(F)c1cc(cc(n1)Cl)-c(nnc(n2)N)c2-c3ccc(F)cc3

$$$$
4g
                    3D
 Schrodinger Suite 2019-4.
 36 38  0  0  1  0            999 V2000
   -0.3898    3.6828   17.1592 N   0  0  0  0  0  0
   -1.2628    3.1500   16.2888 N   0  0  0  0  0  0
   -0.9252    2.9727   14.9771 C   0  0  0  0  0  0
    0.3912    3.2839   14.5525 C   0  0  0  0  0  0
    1.2575    3.8727   15.4256 N   0  0  0  0  0  0
    0.8236    4.0542   16.6924 C   0  0  0  0  0  0
   -4.1740    1.6620   12.4359 N   0  0  0  0  0  0
   -3.2862    2.5993   12.0180 C   0  0  0  0  0  0
   -2.2319    3.0513   12.8163 C   0  0  0  0  0  0
   -2.0487    2.5131   14.0991 C   0  0  0  0  0  0
   -2.9774    1.5533   14.5356 C   0  0  0  0  0  0
   -4.0098    1.1522   13.6832 C   0  0  0  0  0  0
    2.0842    2.4308   10.6833 C   0  0  0  0  0  0
    2.5115    3.5458   11.3940 C   0  0  0  0  0  0
    1.9605    3.8153   12.6438 C   0  0  0  0  0  0
    0.9738    2.9850   13.1999 C   0  0  0  0  0  0
    0.5827    1.8506   12.4729 C   0  0  0  0  0  0
    1.1191    1.5851   11.2170 C   0  0  0  0  0  0
    1.6858    4.6905   17.5743 N   0  0  0  0  0  0
   -5.0229    0.1105   14.1208 C   0  0  0  0  0  0
   -3.5039    3.1451   10.6199 C   0  0  0  0  0  0
   -1.5625    3.8156   12.4501 H   0  0  0  0  0  0
   -2.8867    1.1154   15.5195 H   0  0  0  0  0  0
    2.5071    2.2131    9.7143 H   0  0  0  0  0  0
    3.2631    4.1995   10.9754 H   0  0  0  0  0  0
    2.2925    4.6996   13.1675 H   0  0  0  0  0  0
   -0.1402    1.1572   12.8789 H   0  0  0  0  0  0
    0.8041    0.7081   10.6677 H   0  0  0  0  0  0
    2.4937    5.1769   17.1968 H   0  0  0  0  0  0
    1.3915    4.8365   18.5390 H   0  0  0  0  0  0
   -4.5508   -0.6536   14.7407 H   0  0  0  0  0  0
   -5.8129    0.5797   14.7050 H   0  0  0  0  0  0
   -5.4817   -0.3912   13.2678 H   0  0  0  0  0  0
   -2.8201    3.9648   10.3968 H   0  0  0  0  0  0
   -4.5221    3.5188   10.5033 H   0  0  0  0  0  0
   -3.3358    2.3619    9.8801 H   0  0  0  0  0  0
  1  2  1  0  0  0
  1  6  2  0  0  0
  2  3  2  0  0  0
  3  4  1  0  0  0
  3 10  1  0  0  0
  4  5  2  0  0  0
  4 16  1  0  0  0
  5  6  1  0  0  0
  6 19  1  0  0  0
  7  8  1  0  0  0
  7 12  2  0  0  0
  8  9  2  0  0  0
  8 21  1  0  0  0
  9 10  1  0  0  0
  9 22  1  0  0  0
 10 11  2  0  0  0
 11 12  1  0  0  0
 11 23  1  0  0  0
 12 20  1  0  0  0
 13 14  1  0  0  0
 13 18  2  0  0  0
 13 24  1  0  0  0
 14 15  2  0  0  0
 14 25  1  0  0  0
 15 16  1  0  0  0
 15 26  1  0  0  0
 16 17  2  0  0  0
 17 18  1  0  0  0
 17 27  1  0  0  0
 18 28  1  0  0  0
 19 29  1  0  0  0
 19 30  1  0  0  0
 20 31  1  0  0  0
 20 32  1  0  0  0
 20 33  1  0  0  0
 21 34  1  0  0  0
 21 35  1  0  0  0
 21 36  1  0  0  0
M  END
> <r_mpc_ALogP>
2.6667

> <s_mpc_SMILES>
Cc1cc(cc(n1)C)-c(nnc(n2)N)c2-c3ccccc3

$$$$
4h
                    3D
 Schrodinger Suite 2019-4.
 36 38  0  0  1  0            999 V2000
   -0.4027    3.7312   17.1511 N   0  0  0  0  0  0
   -1.2803    3.2159   16.2763 N   0  0  0  0  0  0
   -0.9297    3.0106   14.9731 C   0  0  0  0  0  0
    0.3993    3.2795   14.5613 C   0  0  0  0  0  0
    1.2805    3.8325   15.4437 N   0  0  0  0  0  0
    0.8327    4.0457   16.7004 C   0  0  0  0  0  0
   -4.1459    1.6217   12.4276 N   0  0  0  0  0  0
   -3.2605    2.5577   11.9997 C   0  0  0  0  0  0
   -2.2191    3.0375   12.7986 C   0  0  0  0  0  0
   -2.0458    2.5320   14.0954 C   0  0  0  0  0  0
   -2.9705    1.5748   14.5440 C   0  0  0  0  0  0
   -3.9911    1.1439   13.6900 C   0  0  0  0  0  0
    2.0406    2.4404   10.6703 C   0  0  0  0  0  0
    2.4662    3.5594   11.3747 C   0  0  0  0  0  0
    1.9347    3.8218   12.6336 C   0  0  0  0  0  0
    0.9775    2.9758   13.2110 C   0  0  0  0  0  0
    0.5992    1.8292   12.4983 C   0  0  0  0  0  0
    1.1026    1.5811   11.2263 C   0  0  0  0  0  0
    1.6964    4.6599   17.5935 N   0  0  0  0  0  0
   -4.9946    0.1007   14.1452 C   0  0  0  0  0  0
   -3.4620    3.0719   10.5870 C   0  0  0  0  0  0
   -1.5502    3.7932   12.4168 H   0  0  0  0  0  0
   -2.8893    1.1526   15.5340 H   0  0  0  0  0  0
    2.5324    2.1906    9.4370 F   0  0  0  0  0  0
    3.1920    4.2305   10.9400 H   0  0  0  0  0  0
    2.2580    4.7133   13.1497 H   0  0  0  0  0  0
   -0.1058    1.1272   12.9221 H   0  0  0  0  0  0
    0.7842    0.7053   10.6786 H   0  0  0  0  0  0
    2.5127    5.1428   17.2312 H   0  0  0  0  0  0
    1.3770    4.8269   18.5484 H   0  0  0  0  0  0
   -4.5060   -0.6759   14.7363 H   0  0  0  0  0  0
   -5.7621    0.5655   14.7621 H   0  0  0  0  0  0
   -5.4824   -0.3858   13.2993 H   0  0  0  0  0  0
   -2.7990    3.9107   10.3688 H   0  0  0  0  0  0
   -4.4870    3.4175   10.4411 H   0  0  0  0  0  0
   -3.2514    2.2791    9.8684 H   0  0  0  0  0  0
  1  2  1  0  0  0
  1  6  2  0  0  0
  2  3  2  0  0  0
  3  4  1  0  0  0
  3 10  1  0  0  0
  4  5  2  0  0  0
  4 16  1  0  0  0
  5  6  1  0  0  0
  6 19  1  0  0  0
  7  8  1  0  0  0
  7 12  2  0  0  0
  8  9  2  0  0  0
  8 21  1  0  0  0
  9 10  1  0  0  0
  9 22  1  0  0  0
 10 11  2  0  0  0
 11 12  1  0  0  0
 11 23  1  0  0  0
 12 20  1  0  0  0
 13 14  1  0  0  0
 13 18  2  0  0  0
 13 24  1  0  0  0
 14 15  2  0  0  0
 14 25  1  0  0  0
 15 16  1  0  0  0
 15 26  1  0  0  0
 16 17  2  0  0  0
 17 18  1  0  0  0
 17 27  1  0  0  0
 18 28  1  0  0  0
 19 29  1  0  0  0
 19 30  1  0  0  0
 20 31  1  0  0  0
 20 32  1  0  0  0
 20 33  1  0  0  0
 21 34  1  0  0  0
 21 35  1  0  0  0
 21 36  1  0  0  0
M  END
> <r_mpc_ALogP>
2.8722

> <s_mpc_SMILES>
Cc1cc(cc(n1)C)-c(nnc(n2)N)c2-c3ccc(F)cc3

$$$$
4j
                    3D
 Schrodinger Suite 2019-4.
 36 38  0  0  1  0            999 V2000
   -0.4056    3.6837   17.1594 N   0  0  0  0  0  0
   -1.2784    3.1627   16.2818 N   0  0  0  0  0  0
   -0.9330    2.9770   14.9717 C   0  0  0  0  0  0
    0.3928    3.2672   14.5575 C   0  0  0  0  0  0
    1.2557    3.8466   15.4381 N   0  0  0  0  0  0
    0.8164    4.0347   16.6993 C   0  0  0  0  0  0
   -4.1913    1.6732   12.4331 N   0  0  0  0  0  0
   -3.2920    2.5956   12.0058 C   0  0  0  0  0  0
   -2.2373    3.0461   12.8035 C   0  0  0  0  0  0
   -2.0621    2.5253   14.0951 C   0  0  0  0  0  0
   -3.0028    1.5847   14.5413 C   0  0  0  0  0  0
   -4.0348    1.1813   13.6889 C   0  0  0  0  0  0
    2.1029    2.4569   10.6663 C   0  0  0  0  0  0
    1.0495    1.6841   11.1451 C   0  0  0  0  0  0
    0.5357    1.9089   12.4170 C   0  0  0  0  0  0
    0.9946    2.9689   13.2119 C   0  0  0  0  0  0
    2.0660    3.7291   12.7110 C   0  0  0  0  0  0
    2.6208    3.4778   11.4569 C   0  0  0  0  0  0
    1.6871    4.6469   17.5853 N   0  0  0  0  0  0
   -5.0523    0.1570   14.1446 C   0  0  0  0  0  0
   -3.4841    3.1162   10.5938 C   0  0  0  0  0  0
   -1.5458    3.7775   12.4171 H   0  0  0  0  0  0
   -2.9203    1.1555   15.5287 H   0  0  0  0  0  0
    2.4983    2.2755    9.6781 H   0  0  0  0  0  0
    0.4879    0.7431   10.3564 F   0  0  0  0  0  0
   -0.2508    1.2539   12.7613 H   0  0  0  0  0  0
    2.4656    4.5589   13.2754 H   0  0  0  0  0  0
    3.4325    4.0898   11.0926 H   0  0  0  0  0  0
    2.5192    5.1063   17.2202 H   0  0  0  0  0  0
    1.4192    4.7404   18.5638 H   0  0  0  0  0  0
   -4.5746   -0.6335   14.7287 H   0  0  0  0  0  0
   -5.7928    0.6495   14.7766 H   0  0  0  0  0  0
   -5.5667   -0.3142   13.3012 H   0  0  0  0  0  0
   -2.8571    3.9879   10.4012 H   0  0  0  0  0  0
   -4.5211    3.4103   10.4237 H   0  0  0  0  0  0
   -3.2174    2.3449    9.8701 H   0  0  0  0  0  0
  1  2  1  0  0  0
  1  6  2  0  0  0
  2  3  2  0  0  0
  3  4  1  0  0  0
  3 10  1  0  0  0
  4  5  2  0  0  0
  4 16  1  0  0  0
  5  6  1  0  0  0
  6 19  1  0  0  0
  7  8  1  0  0  0
  7 12  2  0  0  0
  8  9  2  0  0  0
  8 21  1  0  0  0
  9 10  1  0  0  0
  9 22  1  0  0  0
 10 11  2  0  0  0
 11 12  1  0  0  0
 11 23  1  0  0  0
 12 20  1  0  0  0
 13 14  1  0  0  0
 13 18  2  0  0  0
 13 24  1  0  0  0
 14 15  2  0  0  0
 14 25  1  0  0  0
 15 16  1  0  0  0
 15 26  1  0  0  0
 16 17  2  0  0  0
 17 18  1  0  0  0
 17 27  1  0  0  0
 18 28  1  0  0  0
 19 29  1  0  0  0
 19 30  1  0  0  0
 20 31  1  0  0  0
 20 32  1  0  0  0
 20 33  1  0  0  0
 21 34  1  0  0  0
 21 35  1  0  0  0
 21 36  1  0  0  0
M  END
> <r_mpc_ALogP>
2.8722

> <s_mpc_SMILES>
Cc1cc(cc(n1)C)-c(nnc(n2)N)c2-c3cc(F)ccc3

$$$$
4m
                    3D
 Schrodinger Suite 2019-4.
 30 32  0  0  1  0            999 V2000
   -0.2200    3.7826   17.2351 N   0  0  0  0  0  0
   -1.1078    3.0995   16.4949 N   0  0  0  0  0  0
   -0.8894    2.8668   15.1671 C   0  0  0  0  0  0
    0.3387    3.2774   14.5914 C   0  0  0  0  0  0
    1.2169    4.0171   15.3319 N   0  0  0  0  0  0
    0.8914    4.2478   16.6222 C   0  0  0  0  0  0
   -4.2679    1.0807   13.1261 N   0  0  0  0  0  0
   -3.4703    1.9827   12.4999 C   0  0  0  0  0  0
   -2.3721    2.5701   13.1301 C   0  0  0  0  0  0
   -2.0435    2.2266   14.4548 C   0  0  0  0  0  0
   -2.8888    1.3043   15.0987 C   0  0  0  0  0  0
   -3.9728    0.7574   14.4093 C   0  0  0  0  0  0
    1.7950    2.3043   10.6511 C   0  0  0  0  0  0
    0.9733    1.4091   11.3276 C   0  0  0  0  0  0
    0.5168    1.7156   12.6057 C   0  0  0  0  0  0
    0.8306    2.9393   13.2130 C   0  0  0  0  0  0
    1.6699    3.8219   12.5141 C   0  0  0  0  0  0
    2.1500    3.5104   11.2426 C   0  0  0  0  0  0
    1.7556    5.0338   17.3701 N   0  0  0  0  0  0
   -3.8452    2.4307   10.8738 Cl  0  0  0  0  0  0
   -1.7836    3.3022   12.6001 H   0  0  0  0  0  0
   -2.7024    1.0030   16.1194 H   0  0  0  0  0  0
   -4.6288    0.0427   14.8842 H   0  0  0  0  0  0
    2.1665    2.0602    9.6662 H   0  0  0  0  0  0
    0.7132    0.4642   10.8693 H   0  0  0  0  0  0
   -0.0836    0.9828   13.1267 H   0  0  0  0  0  0
    1.9444    4.7739   12.9433 H   0  0  0  0  0  0
    2.7961    4.2008   10.7197 H   0  0  0  0  0  0
    2.4804    5.5556   16.8873 H   0  0  0  0  0  0
    1.5365    5.2275   18.3472 H   0  0  0  0  0  0
  1  2  1  0  0  0
  1  6  2  0  0  0
  2  3  2  0  0  0
  3  4  1  0  0  0
  3 10  1  0  0  0
  4  5  2  0  0  0
  4 16  1  0  0  0
  5  6  1  0  0  0
  6 19  1  0  0  0
  7  8  1  0  0  0
  7 12  2  0  0  0
  8  9  2  0  0  0
  8 20  1  0  0  0
  9 10  1  0  0  0
  9 21  1  0  0  0
 10 11  2  0  0  0
 11 12  1  0  0  0
 11 22  1  0  0  0
 12 23  1  0  0  0
 13 14  1  0  0  0
 13 18  2  0  0  0
 13 24  1  0  0  0
 14 15  2  0  0  0
 14 25  1  0  0  0
 15 16  1  0  0  0
 15 26  1  0  0  0
 16 17  2  0  0  0
 17 18  1  0  0  0
 17 27  1  0  0  0
 18 28  1  0  0  0
 19 29  1  0  0  0
 19 30  1  0  0  0
M  END
> <r_mpc_ALogP>
2.9778

> <s_mpc_SMILES>
c1ccccc1-c2c(nnc(n2)N)-c3cc(Cl)ncc3

$$$$
4q
                    3D
 Schrodinger Suite 2019-4.
 30 32  0  0  1  0            999 V2000
   -0.3999    3.6449   17.1598 N   0  0  0  0  0  0
   -1.2730    3.1319   16.2775 N   0  0  0  0  0  0
   -0.9321    2.9660   14.9643 C   0  0  0  0  0  0
    0.3899    3.2710   14.5499 C   0  0  0  0  0  0
    1.2566    3.8383   15.4377 N   0  0  0  0  0  0
    0.8205    4.0063   16.7049 C   0  0  0  0  0  0
   -4.2199    1.7192   12.4305 N   0  0  0  0  0  0
   -4.0870    1.2458   13.6946 C   0  0  0  0  0  0
   -3.0397    1.6204   14.5401 C   0  0  0  0  0  0
   -2.0618    2.5203   14.0819 C   0  0  0  0  0  0
   -2.2152    3.0238   12.7804 C   0  0  0  0  0  0
   -3.2854    2.5976   11.9914 C   0  0  0  0  0  0
    2.1398    2.4479   10.6960 C   0  0  0  0  0  0
    1.1574    1.6046   11.2032 C   0  0  0  0  0  0
    0.6026    1.8601   12.4537 C   0  0  0  0  0  0
    0.9887    2.9827   13.2010 C   0  0  0  0  0  0
    1.9908    3.8104   12.6696 C   0  0  0  0  0  0
    2.5634    3.5505   11.4283 C   0  0  0  0  0  0
    1.6885    4.6088   17.6041 N   0  0  0  0  0  0
   -4.8426    0.5495   14.0285 H   0  0  0  0  0  0
   -2.9838    1.2052   15.5358 H   0  0  0  0  0  0
   -1.5167    3.7448   12.3841 H   0  0  0  0  0  0
   -3.4128    2.9766   10.9876 H   0  0  0  0  0  0
    2.5759    2.2439    9.7291 H   0  0  0  0  0  0
    0.8336    0.7463   10.6328 H   0  0  0  0  0  0
   -0.1323    1.1695   12.8411 H   0  0  0  0  0  0
    2.3193    4.6865   13.2091 H   0  0  0  0  0  0
    3.3281    4.2044   11.0341 H   0  0  0  0  0  0
    2.5029    5.0971   17.2411 H   0  0  0  0  0  0
    1.3964    4.7301   18.5729 H   0  0  0  0  0  0
  1  2  1  0  0  0
  1  6  2  0  0  0
  2  3  2  0  0  0
  3  4  1  0  0  0
  3 10  1  0  0  0
  4  5  2  0  0  0
  4 16  1  0  0  0
  5  6  1  0  0  0
  6 19  1  0  0  0
  7  8  1  0  0  0
  7 12  2  0  0  0
  8  9  2  0  0  0
  8 20  1  0  0  0
  9 10  1  0  0  0
  9 21  1  0  0  0
 10 11  2  0  0  0
 11 12  1  0  0  0
 11 22  1  0  0  0
 12 23  1  0  0  0
 13 14  1  0  0  0
 13 18  2  0  0  0
 13 24  1  0  0  0
 14 15  2  0  0  0
 14 25  1  0  0  0
 15 16  1  0  0  0
 15 26  1  0  0  0
 16 17  2  0  0  0
 17 18  1  0  0  0
 17 27  1  0  0  0
 18 28  1  0  0  0
 19 29  1  0  0  0
 19 30  1  0  0  0
M  END
> <r_mpc_ALogP>
2.1015

> <s_mpc_SMILES>
c1ccccc1-c2c(nnc(n2)N)-c3ccncc3

$$$$
4k
                    3D
 Schrodinger Suite 2019-4.
 36 38  0  0  1  0            999 V2000
   -0.3913    3.6931   17.1679 N   0  0  0  0  0  0
   -1.2734    3.1789   16.2933 N   0  0  0  0  0  0
   -0.9316    2.9943   14.9831 C   0  0  0  0  0  0
    0.3869    3.2890   14.5596 C   0  0  0  0  0  0
    1.2602    3.8584   15.4373 N   0  0  0  0  0  0
    0.8328    4.0392   16.7062 C   0  0  0  0  0  0
   -4.1344    1.6324   12.4170 N   0  0  0  0  0  0
   -3.3165    2.6464   12.0392 C   0  0  0  0  0  0
   -2.2651    3.1032   12.8386 C   0  0  0  0  0  0
   -2.0495    2.5333   14.1013 C   0  0  0  0  0  0
   -2.9214    1.5140   14.5058 C   0  0  0  0  0  0
   -3.9222    1.0645   13.6355 C   0  0  0  0  0  0
    2.0450    2.4478   10.6707 C   0  0  0  0  0  0
    2.5039    3.5404   11.3970 C   0  0  0  0  0  0
    1.9646    3.8045   12.6521 C   0  0  0  0  0  0
    0.9630    2.9905   13.2035 C   0  0  0  0  0  0
    0.5472    1.8732   12.4643 C   0  0  0  0  0  0
    1.0678    1.6134   11.2007 C   0  0  0  0  0  0
    1.7181    4.6340   17.5960 N   0  0  0  0  0  0
   -4.7990   -0.1263   14.0177 C   0  0  0  0  0  0
   -3.6123    3.2646   10.6853 C   0  0  0  0  0  0
   -1.6123    3.8833   12.4846 H   0  0  0  0  0  0
   -2.7924    1.0437   15.4692 H   0  0  0  0  0  0
    2.4535    2.2416    9.6921 H   0  0  0  0  0  0
    3.2643    4.1882   10.9840 H   0  0  0  0  0  0
    2.3134    4.6781   13.1825 H   0  0  0  0  0  0
   -0.1845    1.1876   12.8655 H   0  0  0  0  0  0
    0.7209    0.7597   10.6372 H   0  0  0  0  0  0
    2.5457    5.0910   17.2243 H   0  0  0  0  0  0
    1.4431    4.7660   18.5688 H   0  0  0  0  0  0
   -5.7477   -0.3881   13.1152 F   0  0  0  0  0  0
   -4.0324   -1.2098   14.1414 F   0  0  0  0  0  0
   -5.3842    0.1128   15.1899 F   0  0  0  0  0  0
   -2.8884    4.0400   10.4262 H   0  0  0  0  0  0
   -4.6031    3.7215   10.6871 H   0  0  0  0  0  0
   -3.5910    2.5041    9.9028 H   0  0  0  0  0  0
  1  2  1  0  0  0
  1  6  2  0  0  0
  2  3  2  0  0  0
  3  4  1  0  0  0
  3 10  1  0  0  0
  4  5  2  0  0  0
  4 16  1  0  0  0
  5  6  1  0  0  0
  6 19  1  0  0  0
  7  8  1  0  0  0
  7 12  2  0  0  0
  8  9  2  0  0  0
  8 21  1  0  0  0
  9 10  1  0  0  0
  9 22  1  0  0  0
 10 11  2  0  0  0
 11 12  1  0  0  0
 11 23  1  0  0  0
 12 20  1  0  0  0
 13 14  1  0  0  0
 13 18  2  0  0  0
 13 24  1  0  0  0
 14 15  2  0  0  0
 14 25  1  0  0  0
 15 16  1  0  0  0
 15 26  1  0  0  0
 16 17  2  0  0  0
 17 18  1  0  0  0
 17 27  1  0  0  0
 18 28  1  0  0  0
 19 29  1  0  0  0
 19 30  1  0  0  0
 20 31  1  0  0  0
 20 32  1  0  0  0
 20 33  1  0  0  0
 21 34  1  0  0  0
 21 35  1  0  0  0
 21 36  1  0  0  0
M  END
> <r_mpc_ALogP>
3.7549

> <s_mpc_SMILES>
FC(F)(F)c1cc(cc(n1)C)-c(nnc(n2)N)c2-c3ccccc3

$$$$
4n
                    3D
 Schrodinger Suite 2019-4.
 30 32  0  0  1  0            999 V2000
   -0.4105    3.6492   17.1546 N   0  0  0  0  0  0
   -1.2765    3.1312   16.2685 N   0  0  0  0  0  0
   -0.9246    2.9642   14.9585 C   0  0  0  0  0  0
    0.3974    3.2723   14.5510 C   0  0  0  0  0  0
    1.2571    3.8444   15.4426 N   0  0  0  0  0  0
    0.8126    4.0138   16.7072 C   0  0  0  0  0  0
   -4.1659    1.6996   12.3952 N   0  0  0  0  0  0
   -4.0174    1.1761   13.6381 C   0  0  0  0  0  0
   -2.9819    1.5626   14.4923 C   0  0  0  0  0  0
   -2.0423    2.5153   14.0673 C   0  0  0  0  0  0
   -2.2149    3.0619   12.7868 C   0  0  0  0  0  0
   -3.2728    2.6328   11.9821 C   0  0  0  0  0  0
    2.1707    2.4359   10.7098 C   0  0  0  0  0  0
    1.1775    1.6004   11.2089 C   0  0  0  0  0  0
    0.6121    1.8626   12.4534 C   0  0  0  0  0  0
    0.9997    2.9833   13.2035 C   0  0  0  0  0  0
    2.0108    3.8046   12.6789 C   0  0  0  0  0  0
    2.5922    3.5392   11.4429 C   0  0  0  0  0  0
    1.6724    4.6215   17.6117 N   0  0  0  0  0  0
   -3.4681    3.3217   10.4113 Cl  0  0  0  0  0  0
   -5.1472   -0.0146   14.1711 Cl  0  0  0  0  0  0
   -2.9016    1.1133   15.4717 H   0  0  0  0  0  0
   -1.5385    3.8203   12.4219 H   0  0  0  0  0  0
    2.6183    2.2252    9.7493 H   0  0  0  0  0  0
    0.8621    0.7326   10.6447 H   0  0  0  0  0  0
   -0.1265    1.1734   12.8358 H   0  0  0  0  0  0
    2.3425    4.6783   13.2207 H   0  0  0  0  0  0
    3.3654    4.1876   11.0554 H   0  0  0  0  0  0
    2.4922    5.1060   17.2558 H   0  0  0  0  0  0
    1.3672    4.7553   18.5748 H   0  0  0  0  0  0
  1  2  1  0  0  0
  1  6  2  0  0  0
  2  3  2  0  0  0
  3  4  1  0  0  0
  3 10  1  0  0  0
  4  5  2  0  0  0
  4 16  1  0  0  0
  5  6  1  0  0  0
  6 19  1  0  0  0
  7  8  1  0  0  0
  7 12  2  0  0  0
  8  9  2  0  0  0
  8 21  1  0  0  0
  9 10  1  0  0  0
  9 22  1  0  0  0
 10 11  2  0  0  0
 11 12  1  0  0  0
 11 23  1  0  0  0
 12 20  1  0  0  0
 13 14  1  0  0  0
 13 18  2  0  0  0
 13 24  1  0  0  0
 14 15  2  0  0  0
 14 25  1  0  0  0
 15 16  1  0  0  0
 15 26  1  0  0  0
 16 17  2  0  0  0
 17 18  1  0  0  0
 17 27  1  0  0  0
 18 28  1  0  0  0
 19 29  1  0  0  0
 19 30  1  0  0  0
M  END
> <r_mpc_ALogP>
3.8541

> <s_mpc_SMILES>
c1ccccc1-c2c(nnc(n2)N)-c3cc(Cl)nc(Cl)c3

$$$$
4l
                    3D
 Schrodinger Suite 2019-4.
 36 38  0  0  1  0            999 V2000
   -0.3916    3.6862   17.1936 N   0  0  0  0  0  0
   -1.2827    3.2012   16.3094 N   0  0  0  0  0  0
   -0.9356    3.0178   15.0007 C   0  0  0  0  0  0
    0.3990    3.2703   14.5967 C   0  0  0  0  0  0
    1.2930    3.7905   15.4878 N   0  0  0  0  0  0
    0.8516    3.9906   16.7504 C   0  0  0  0  0  0
   -4.0398    1.6422   12.3168 N   0  0  0  0  0  0
   -3.2535    2.7006   11.9995 C   0  0  0  0  0  0
   -2.2452    3.1686   12.8452 C   0  0  0  0  0  0
   -2.0462    2.5703   14.0960 C   0  0  0  0  0  0
   -2.8957    1.5095   14.4431 C   0  0  0  0  0  0
   -3.8491    1.0438   13.5242 C   0  0  0  0  0  0
    1.9278    2.4644   10.6560 C   0  0  0  0  0  0
    0.9776    1.6276   11.2196 C   0  0  0  0  0  0
    0.5285    1.8563   12.5138 C   0  0  0  0  0  0
    0.9581    2.9770   13.2369 C   0  0  0  0  0  0
    1.9286    3.8059   12.6545 C   0  0  0  0  0  0
    2.4241    3.5420   11.3779 C   0  0  0  0  0  0
    1.7351    4.5858   17.6469 N   0  0  0  0  0  0
   -4.6764   -0.2191   13.7914 C   0  0  0  0  0  0
   -3.5185    3.3456   10.6523 C   0  0  0  0  0  0
   -1.5983    3.9680   12.5286 H   0  0  0  0  0  0
   -2.7666    1.0103   15.3908 H   0  0  0  0  0  0
    2.3558    2.2280    9.3950 F   0  0  0  0  0  0
    0.6066    0.7836   10.6574 H   0  0  0  0  0  0
   -0.1801    1.1615   12.9408 H   0  0  0  0  0  0
    2.2941    4.6775   13.1796 H   0  0  0  0  0  0
    3.1645    4.1910   10.9347 H   0  0  0  0  0  0
    2.5609    5.0415   17.2742 H   0  0  0  0  0  0
    1.4167    4.7937   18.5928 H   0  0  0  0  0  0
   -5.9270   -0.1114   13.3427 F   0  0  0  0  0  0
   -4.0990   -1.2464   13.1717 F   0  0  0  0  0  0
   -4.7288   -0.4990   15.0915 F   0  0  0  0  0  0
   -2.8973    4.2298   10.4938 H   0  0  0  0  0  0
   -4.5621    3.6597   10.5794 H   0  0  0  0  0  0
   -3.3157    2.6405    9.8448 H   0  0  0  0  0  0
  1  2  1  0  0  0
  1  6  2  0  0  0
  2  3  2  0  0  0
  3  4  1  0  0  0
  3 10  1  0  0  0
  4  5  2  0  0  0
  4 16  1  0  0  0
  5  6  1  0  0  0
  6 19  1  0  0  0
  7  8  1  0  0  0
  7 12  2  0  0  0
  8  9  2  0  0  0
  8 21  1  0  0  0
  9 10  1  0  0  0
  9 22  1  0  0  0
 10 11  2  0  0  0
 11 12  1  0  0  0
 11 23  1  0  0  0
 12 20  1  0  0  0
 13 14  1  0  0  0
 13 18  2  0  0  0
 13 24  1  0  0  0
 14 15  2  0  0  0
 14 25  1  0  0  0
 15 16  1  0  0  0
 15 26  1  0  0  0
 16 17  2  0  0  0
 17 18  1  0  0  0
 17 27  1  0  0  0
 18 28  1  0  0  0
 19 29  1  0  0  0
 19 30  1  0  0  0
 20 31  1  0  0  0
 20 32  1  0  0  0
 20 33  1  0  0  0
 21 34  1  0  0  0
 21 35  1  0  0  0
 21 36  1  0  0  0
M  END
> <r_mpc_ALogP>
3.9604

> <s_mpc_SMILES>
FC(F)(F)c1cc(cc(n1)C)-c(nnc(n2)N)c2-c3ccc(F)cc3

$$$$
4i
                    3D
 Schrodinger Suite 2019-4.
 36 38  0  0  1  0            999 V2000
   -0.3888    3.6808   17.1765 N   0  0  0  0  0  0
   -1.2779    3.1610   16.3112 N   0  0  0  0  0  0
   -0.9443    2.9690   14.9993 C   0  0  0  0  0  0
    0.3725    3.2570   14.5705 C   0  0  0  0  0  0
    1.2525    3.8258   15.4393 N   0  0  0  0  0  0
    0.8311    4.0251   16.7011 C   0  0  0  0  0  0
   -4.1149    1.6597   12.3785 N   0  0  0  0  0  0
   -3.2721    2.6614   12.0197 C   0  0  0  0  0  0
   -2.2593    3.1288   12.8577 C   0  0  0  0  0  0
   -2.0653    2.5337   14.1132 C   0  0  0  0  0  0
   -2.9476    1.5116   14.4960 C   0  0  0  0  0  0
   -3.9456    1.1017   13.6068 C   0  0  0  0  0  0
    2.0734    2.4698   10.6771 C   0  0  0  0  0  0
    1.0113    1.6987   11.1397 C   0  0  0  0  0  0
    0.4876    1.9206   12.4100 C   0  0  0  0  0  0
    0.9534    2.9722   13.2166 C   0  0  0  0  0  0
    2.0149    3.7460   12.7193 C   0  0  0  0  0  0
    2.5782    3.4894   11.4747 C   0  0  0  0  0  0
    1.7248    4.6383   17.5618 N   0  0  0  0  0  0
   -4.8939   -0.0193   13.9775 C   0  0  0  0  0  0
   -3.4543    3.2306   10.6254 C   0  0  0  0  0  0
   -1.6060    3.9214   12.5265 H   0  0  0  0  0  0
   -2.8443    1.0315   15.4565 H   0  0  0  0  0  0
    2.4864    2.2894    9.6958 H   0  0  0  0  0  0
    0.4617    0.7527   10.3472 F   0  0  0  0  0  0
   -0.2989    1.2625   12.7481 H   0  0  0  0  0  0
    2.4097    4.5742   13.2894 H   0  0  0  0  0  0
    3.5970    4.2560   11.0469 F   0  0  0  0  0  0
    2.5681    5.0629   17.1865 H   0  0  0  0  0  0
    1.4812    4.7235   18.5479 H   0  0  0  0  0  0
   -4.3541   -0.8313   14.4712 H   0  0  0  0  0  0
   -5.6448    0.3537   14.6727 H   0  0  0  0  0  0
   -5.3996   -0.4421   13.1065 H   0  0  0  0  0  0
   -2.7741    4.0618   10.4374 H   0  0  0  0  0  0
   -4.4719    3.5971   10.4827 H   0  0  0  0  0  0
   -3.2584    2.4621    9.8779 H   0  0  0  0  0  0
  1  2  1  0  0  0
  1  6  2  0  0  0
  2  3  2  0  0  0
  3  4  1  0  0  0
  3 10  1  0  0  0
  4  5  2  0  0  0
  4 16  1  0  0  0
  5  6  1  0  0  0
  6 19  1  0  0  0
  7  8  1  0  0  0
  7 12  2  0  0  0
  8  9  2  0  0  0
  8 21  1  0  0  0
  9 10  1  0  0  0
  9 22  1  0  0  0
 10 11  2  0  0  0
 11 12  1  0  0  0
 11 23  1  0  0  0
 12 20  1  0  0  0
 13 14  1  0  0  0
 13 18  2  0  0  0
 13 24  1  0  0  0
 14 15  2  0  0  0
 14 25  1  0  0  0
 15 16  1  0  0  0
 15 26  1  0  0  0
 16 17  2  0  0  0
 17 18  1  0  0  0
 17 27  1  0  0  0
 18 28  1  0  0  0
 19 29  1  0  0  0
 19 30  1  0  0  0
 20 31  1  0  0  0
 20 32  1  0  0  0
 20 33  1  0  0  0
 21 34  1  0  0  0
 21 35  1  0  0  0
 21 36  1  0  0  0
M  END
> <r_mpc_ALogP>
3.0777

> <s_mpc_SMILES>
Cc1cc(cc(n1)C)-c(nnc(n2)N)c2-c3cc(F)cc(F)c3

$$$$
