4q
     RDKit          3D

 30 32  0  0  1  0  0  0  0  0999 V2000
   66.4723   42.9283   46.0409 N   0  0  0  0  0  0  0  0  0  0  0  0
   67.4224   42.4779   46.8766 N   0  0  0  0  0  0  0  0  0  0  0  0
   67.1644   42.3022   48.2074 C   0  0  0  0  0  0  0  0  0  0  0  0
   65.8505   42.5282   48.6921 C   0  0  0  0  0  0  0  0  0  0  0  0
   64.9031   43.0332   47.8503 N   0  0  0  0  0  0  0  0  0  0  0  0
   65.2583   43.2172   46.5602 C   0  0  0  0  0  0  0  0  0  0  0  0
   70.6565   41.2829   50.5634 N   0  0  0  0  0  0  0  0  0  0  0  0
   70.4848   40.7915   49.3109 C   0  0  0  0  0  0  0  0  0  0  0  0
   69.3717   41.0934   48.5222 C   0  0  0  0  0  0  0  0  0  0  0  0
   68.3660   41.9348   49.0287 C   0  0  0  0  0  0  0  0  0  0  0  0
   68.5583   42.4578   50.3173 C   0  0  0  0  0  0  0  0  0  0  0  0
   69.6943   42.1053   51.0486 C   0  0  0  0  0  0  0  0  0  0  0  0
   64.3675   41.6307   52.6401 C   0  0  0  0  0  0  0  0  0  0  0  0
   65.3715   40.8456   52.0841 C   0  0  0  0  0  0  0  0  0  0  0  0
   65.8404   41.1245   50.8038 C   0  0  0  0  0  0  0  0  0  0  0  0
   65.3451   42.2147   50.0732 C   0  0  0  0  0  0  0  0  0  0  0  0
   64.3237   42.9831   50.6545 C   0  0  0  0  0  0  0  0  0  0  0  0
   63.8368   42.6987   51.9266 C   0  0  0  0  0  0  0  0  0  0  0  0
   64.3068   43.7572   45.7069 N   0  0  0  0  0  0  0  0  0  0  0  0
   71.2630   40.1406   48.9395 H   0  0  0  0  0  0  0  0  0  0  0  0
   69.2878   40.6672   47.5331 H   0  0  0  0  0  0  0  0  0  0  0  0
   67.8388   43.1374   50.7477 H   0  0  0  0  0  0  0  0  0  0  0  0
   69.8522   42.4999   52.0420 H   0  0  0  0  0  0  0  0  0  0  0  0
   63.9982   41.4082   53.6305 H   0  0  0  0  0  0  0  0  0  0  0  0
   65.7787   40.0139   52.6402 H   0  0  0  0  0  0  0  0  0  0  0  0
   66.5948   40.4775   50.3802 H   0  0  0  0  0  0  0  0  0  0  0  0
   63.9124   43.8326   50.1295 H   0  0  0  0  0  0  0  0  0  0  0  0
   63.0554   43.3072   52.3589 H   0  0  0  0  0  0  0  0  0  0  0  0
   63.4845   44.1971   46.1116 H   0  0  0  0  0  0  0  0  0  0  0  0
   64.5377   43.8882   44.7230 H   0  0  0  0  0  0  0  0  0  0  0  0
  1  2  2  0
  1  6  1  0
  2  3  1  0
  3  4  2  0
  3 10  1  0
  4  5  1  0
  4 16  1  0
  5  6  2  0
  6 19  1  0
  7  8  2  0
  7 12  1  0
  8  9  1  0
  8 20  1  0
  9 10  2  0
  9 21  1  0
 10 11  1  0
 11 12  2  0
 11 22  1  0
 12 23  1  0
 13 14  2  0
 13 18  1  0
 13 24  1  0
 14 15  1  0
 14 25  1  0
 15 16  2  0
 15 26  1  0
 16 17  1  0
 17 18  2  0
 17 27  1  0
 18 28  1  0
 19 29  1  0
 19 30  1  0
M  END
$$$$
4g
     RDKit          3D

 36 38  0  0  1  0  0  0  0  0999 V2000
   66.4599   42.9655   46.0419 N   0  0  0  0  0  0  0  0  0  0  0  0
   67.4105   42.4952   46.8658 N   0  0  0  0  0  0  0  0  0  0  0  0
   67.1564   42.3084   48.1949 C   0  0  0  0  0  0  0  0  0  0  0  0
   65.8482   42.5410   48.6895 C   0  0  0  0  0  0  0  0  0  0  0  0
   64.9007   43.0676   47.8622 N   0  0  0  0  0  0  0  0  0  0  0  0
   65.2529   43.2650   46.5726 C   0  0  0  0  0  0  0  0  0  0  0  0
   70.6140   41.2229   50.5608 N   0  0  0  0  0  0  0  0  0  0  0  0
   69.6935   42.1069   51.0220 C   0  0  0  0  0  0  0  0  0  0  0  0
   68.5713   42.4859   50.2804 C   0  0  0  0  0  0  0  0  0  0  0  0
   68.3525   41.9267   49.0123 C   0  0  0  0  0  0  0  0  0  0  0  0
   69.3141   41.0226   48.5304 C   0  0  0  0  0  0  0  0  0  0  0  0
   70.4143   40.6934   49.3269 C   0  0  0  0  0  0  0  0  0  0  0  0
   64.4246   41.6171   52.6499 C   0  0  0  0  0  0  0  0  0  0  0  0
   63.8907   42.6975   51.9581 C   0  0  0  0  0  0  0  0  0  0  0  0
   64.3550   42.9901   50.6786 C   0  0  0  0  0  0  0  0  0  0  0  0
   65.3598   42.2179   50.0734 C   0  0  0  0  0  0  0  0  0  0  0  0
   65.8598   41.1161   50.7836 C   0  0  0  0  0  0  0  0  0  0  0  0
   65.4101   40.8284   52.0683 C   0  0  0  0  0  0  0  0  0  0  0  0
   64.3061   43.8392   45.7361 N   0  0  0  0  0  0  0  0  0  0  0  0
   71.4651   39.7129   48.8397 C   0  0  0  0  0  0  0  0  0  0  0  0
   69.9525   42.6768   52.4033 C   0  0  0  0  0  0  0  0  0  0  0  0
   67.8764   43.2103   50.6789 H   0  0  0  0  0  0  0  0  0  0  0  0
   69.1975   40.5717   47.5552 H   0  0  0  0  0  0  0  0  0  0  0  0
   64.0695   41.3818   53.6417 H   0  0  0  0  0  0  0  0  0  0  0  0
   63.1236   43.3069   52.4139 H   0  0  0  0  0  0  0  0  0  0  0  0
   63.9405   43.8477   50.1695 H   0  0  0  0  0  0  0  0  0  0  0  0
   66.6014   40.4654   50.3421 H   0  0  0  0  0  0  0  0  0  0  0  0
   65.8086   39.9773   52.6039 H   0  0  0  0  0  0  0  0  0  0  0  0
   63.4911   44.2777   46.1549 H   0  0  0  0  0  0  0  0  0  0  0  0
   64.5378   43.9950   44.7560 H   0  0  0  0  0  0  0  0  0  0  0  0
   71.0085   38.9158   48.2504 H   0  0  0  0  0  0  0  0  0  0  0  0
   72.1913   40.2252   48.2107 H   0  0  0  0  0  0  0  0  0  0  0  0
   71.9999   39.2478   49.6688 H   0  0  0  0  0  0  0  0  0  0  0  0
   69.2321   43.4544   52.6595 H   0  0  0  0  0  0  0  0  0  0  0  0
   70.9503   43.1139   52.4621 H   0  0  0  0  0  0  0  0  0  0  0  0
   69.8740   41.8910   53.1552 H   0  0  0  0  0  0  0  0  0  0  0  0
  1  2  2  0
  1  6  1  0
  2  3  1  0
  3  4  2  0
  3 10  1  0
  4  5  1  0
  4 16  1  0
  5  6  2  0
  6 19  1  0
  7  8  2  0
  7 12  1  0
  8  9  1  0
  8 21  1  0
  9 10  2  0
  9 22  1  0
 10 11  1  0
 11 12  2  0
 11 23  1  0
 12 20  1  0
 13 14  2  0
 13 18  1  0
 13 24  1  0
 14 15  1  0
 14 25  1  0
 15 16  2  0
 15 26  1  0
 16 17  1  0
 17 18  2  0
 17 27  1  0
 18 28  1  0
 19 29  1  0
 19 30  1  0
 20 31  1  0
 20 32  1  0
 20 33  1  0
 21 34  1  0
 21 35  1  0
 21 36  1  0
M  END
$$$$
4r
     RDKit          3D

 33 35  0  0  1  0  0  0  0  0999 V2000
   66.2809   43.1458   45.9651 N   0  0  0  0  0  0  0  0  0  0  0  0
   67.2540   42.5144   46.6453 N   0  0  0  0  0  0  0  0  0  0  0  0
   67.1095   42.2456   47.9764 C   0  0  0  0  0  0  0  0  0  0  0  0
   65.8968   42.5780   48.6273 C   0  0  0  0  0  0  0  0  0  0  0  0
   64.9231   43.2411   47.9440 N   0  0  0  0  0  0  0  0  0  0  0  0
   65.1638   43.5089   46.6396 C   0  0  0  0  0  0  0  0  0  0  0  0
   70.4789   40.3945   49.9457 N   0  0  0  0  0  0  0  0  0  0  0  0
   69.8513   41.4654   50.4913 C   0  0  0  0  0  0  0  0  0  0  0  0
   68.7639   42.0829   49.8721 C   0  0  0  0  0  0  0  0  0  0  0  0
   68.3027   41.6252   48.6323 C   0  0  0  0  0  0  0  0  0  0  0  0
   68.9829   40.5475   48.0511 C   0  0  0  0  0  0  0  0  0  0  0  0
   70.0346   39.9344   48.7441 C   0  0  0  0  0  0  0  0  0  0  0  0
   64.9563   41.5766   52.7091 C   0  0  0  0  0  0  0  0  0  0  0  0
   64.4677   42.7566   52.1606 C   0  0  0  0  0  0  0  0  0  0  0  0
   64.7748   43.0835   50.8397 C   0  0  0  0  0  0  0  0  0  0  0  0
   65.5459   42.2226   50.0426 C   0  0  0  0  0  0  0  0  0  0  0  0
   65.9653   41.0079   50.6021 C   0  0  0  0  0  0  0  0  0  0  0  0
   65.7088   40.7066   51.9333 C   0  0  0  0  0  0  0  0  0  0  0  0
   64.2014   44.2316   45.9470 N   0  0  0  0  0  0  0  0  0  0  0  0
   70.7012   38.6780   48.1877 C   0  0  0  0  0  0  0  0  0  0  0  0
   70.4106   42.0690   52.0095 Cl  0  0  0  0  0  0  0  0  0  0  0  0
   64.7094   41.2686   54.0023 F   0  0  0  0  0  0  0  0  0  0  0  0
   71.7337   38.2616   48.9256 F   0  0  0  0  0  0  0  0  0  0  0  0
   69.8054   37.6926   48.1314 F   0  0  0  0  0  0  0  0  0  0  0  0
   71.1356   38.9242   46.9544 F   0  0  0  0  0  0  0  0  0  0  0  0
   68.2605   42.8989   50.3574 H   0  0  0  0  0  0  0  0  0  0  0  0
   68.6631   40.1546   47.0972 H   0  0  0  0  0  0  0  0  0  0  0  0
   63.8792   43.4303   52.7674 H   0  0  0  0  0  0  0  0  0  0  0  0
   64.4209   44.0229   50.4437 H   0  0  0  0  0  0  0  0  0  0  0  0
   66.5178   40.2933   50.0128 H   0  0  0  0  0  0  0  0  0  0  0  0
   66.0772   39.7863   52.3606 H   0  0  0  0  0  0  0  0  0  0  0  0
   63.5046   44.7410   46.4820 H   0  0  0  0  0  0  0  0  0  0  0  0
   64.3741   44.4672   44.9727 H   0  0  0  0  0  0  0  0  0  0  0  0
  1  2  2  0
  1  6  1  0
  2  3  1  0
  3  4  2  0
  3 10  1  0
  4  5  1  0
  4 16  1  0
  5  6  2  0
  6 19  1  0
  7  8  2  0
  7 12  1  0
  8  9  1  0
  8 21  1  0
  9 10  2  0
  9 26  1  0
 10 11  1  0
 11 12  2  0
 11 27  1  0
 12 20  1  0
 13 14  2  0
 13 18  1  0
 13 22  1  0
 14 15  1  0
 14 28  1  0
 15 16  2  0
 15 29  1  0
 16 17  1  0
 17 18  2  0
 17 30  1  0
 18 31  1  0
 19 32  1  0
 19 33  1  0
 20 23  1  0
 20 24  1  0
 20 25  1  0
M  END
$$$$
4n
     RDKit          3D

 30 32  0  0  1  0  0  0  0  0999 V2000
   66.4829   42.9333   46.0455 N   0  0  0  0  0  0  0  0  0  0  0  0
   67.4264   42.4775   46.8854 N   0  0  0  0  0  0  0  0  0  0  0  0
   67.1574   42.3000   48.2136 C   0  0  0  0  0  0  0  0  0  0  0  0
   65.8429   42.5290   48.6914 C   0  0  0  0  0  0  0  0  0  0  0  0
   64.9020   43.0392   47.8454 N   0  0  0  0  0  0  0  0  0  0  0  0
   65.2656   43.2252   46.5575 C   0  0  0  0  0  0  0  0  0  0  0  0
   70.6058   41.2603   50.6017 N   0  0  0  0  0  0  0  0  0  0  0  0
   70.4228   40.7181   49.3714 C   0  0  0  0  0  0  0  0  0  0  0  0
   69.3203   41.0325   48.5733 C   0  0  0  0  0  0  0  0  0  0  0  0
   68.3477   41.9287   49.0444 C   0  0  0  0  0  0  0  0  0  0  0  0
   68.5553   42.4957   50.3108 C   0  0  0  0  0  0  0  0  0  0  0  0
   69.6801   42.1398   51.0584 C   0  0  0  0  0  0  0  0  0  0  0  0
   64.3367   41.6167   52.6281 C   0  0  0  0  0  0  0  0  0  0  0  0
   65.3514   40.8401   52.0795 C   0  0  0  0  0  0  0  0  0  0  0  0
   65.8308   41.1264   50.8046 C   0  0  0  0  0  0  0  0  0  0  0  0
   65.3339   42.2146   50.0713 C   0  0  0  0  0  0  0  0  0  0  0  0
   64.3036   42.9760   50.6464 C   0  0  0  0  0  0  0  0  0  0  0  0
   63.8080   42.6855   51.9137 C   0  0  0  0  0  0  0  0  0  0  0  0
   64.3217   43.7708   45.6984 N   0  0  0  0  0  0  0  0  0  0  0  0
   69.9172   42.8526   52.6127 Cl  0  0  0  0  0  0  0  0  0  0  0  0
   71.5940   39.5953   48.7833 Cl  0  0  0  0  0  0  0  0  0  0  0  0
   69.2151   40.5709   47.6021 H   0  0  0  0  0  0  0  0  0  0  0  0
   67.8538   43.2138   50.7084 H   0  0  0  0  0  0  0  0  0  0  0  0
   63.9560   41.3867   53.6127 H   0  0  0  0  0  0  0  0  0  0  0  0
   65.7505   39.9983   52.6299 H   0  0  0  0  0  0  0  0  0  0  0  0
   66.5891   40.4811   50.3858 H   0  0  0  0  0  0  0  0  0  0  0  0
   63.8891   43.8229   50.1192 H   0  0  0  0  0  0  0  0  0  0  0  0
   63.0181   43.2880   52.3397 H   0  0  0  0  0  0  0  0  0  0  0  0
   63.4938   44.2066   46.0963 H   0  0  0  0  0  0  0  0  0  0  0  0
   64.5651   43.9152   44.7194 H   0  0  0  0  0  0  0  0  0  0  0  0
  1  2  2  0
  1  6  1  0
  2  3  1  0
  3  4  2  0
  3 10  1  0
  4  5  1  0
  4 16  1  0
  5  6  2  0
  6 19  1  0
  7  8  2  0
  7 12  1  0
  8  9  1  0
  8 21  1  0
  9 10  2  0
  9 22  1  0
 10 11  1  0
 11 12  2  0
 11 23  1  0
 12 20  1  0
 13 14  2  0
 13 18  1  0
 13 24  1  0
 14 15  1  0
 14 25  1  0
 15 16  2  0
 15 26  1  0
 16 17  1  0
 17 18  2  0
 17 27  1  0
 18 28  1  0
 19 29  1  0
 19 30  1  0
M  END
$$$$
4l
     RDKit          3D

 36 38  0  0  1  0  0  0  0  0999 V2000
   66.4596   42.9688   46.0074 N   0  0  0  0  0  0  0  0  0  0  0  0
   67.4260   42.5474   46.8439 N   0  0  0  0  0  0  0  0  0  0  0  0
   67.1627   42.3538   48.1706 C   0  0  0  0  0  0  0  0  0  0  0  0
   65.8389   42.5265   48.6458 C   0  0  0  0  0  0  0  0  0  0  0  0
   64.8671   42.9828   47.8025 N   0  0  0  0  0  0  0  0  0  0  0  0
   65.2258   43.1993   46.5166 C   0  0  0  0  0  0  0  0  0  0  0  0
   70.4880   41.1958   50.6872 N   0  0  0  0  0  0  0  0  0  0  0  0
   69.6556   42.2061   51.0418 C   0  0  0  0  0  0  0  0  0  0  0  0
   68.5756   42.6036   50.2503 C   0  0  0  0  0  0  0  0  0  0  0  0
   68.3466   41.9836   49.0153 C   0  0  0  0  0  0  0  0  0  0  0  0
   69.2404   40.9746   48.6275 C   0  0  0  0  0  0  0  0  0  0  0  0
   70.2696   40.5766   49.4950 C   0  0  0  0  0  0  0  0  0  0  0  0
   64.5799   41.6606   52.6684 C   0  0  0  0  0  0  0  0  0  0  0  0
   65.5483   40.8796   52.0577 C   0  0  0  0  0  0  0  0  0  0  0  0
   65.9113   41.1248   50.7397 C   0  0  0  0  0  0  0  0  0  0  0  0
   65.3740   42.2106   50.0357 C   0  0  0  0  0  0  0  0  0  0  0  0
   64.3868   42.9826   50.6662 C   0  0  0  0  0  0  0  0  0  0  0  0
   63.9789   42.6993   51.9694 C   0  0  0  0  0  0  0  0  0  0  0  0
   64.2595   43.7310   45.6669 N   0  0  0  0  0  0  0  0  0  0  0  0
   71.1582   39.3652   49.1892 C   0  0  0  0  0  0  0  0  0  0  0  0
   69.9528   42.8776   52.3692 C   0  0  0  0  0  0  0  0  0  0  0  0
   67.8983   43.3640   50.5978 H   0  0  0  0  0  0  0  0  0  0  0  0
   69.0913   40.4604   47.6908 H   0  0  0  0  0  0  0  0  0  0  0  0
   64.2367   41.4087   53.9521 F   0  0  0  0  0  0  0  0  0  0  0  0
   66.0013   40.0649   52.6030 H   0  0  0  0  0  0  0  0  0  0  0  0
   66.6375   40.4717   50.2780 H   0  0  0  0  0  0  0  0  0  0  0  0
   63.9397   43.8255   50.1576 H   0  0  0  0  0  0  0  0  0  0  0  0
   63.2247   43.3048   52.4492 H   0  0  0  0  0  0  0  0  0  0  0  0
   63.4284   44.1378   46.0820 H   0  0  0  0  0  0  0  0  0  0  0  0
   64.5124   43.9503   44.7039 H   0  0  0  0  0  0  0  0  0  0  0  0
   72.4222   39.5540   49.5682 F   0  0  0  0  0  0  0  0  0  0  0  0
   70.6805   38.3094   49.8448 F   0  0  0  0  0  0  0  0  0  0  0  0
   71.1572   39.0782   47.8896 F   0  0  0  0  0  0  0  0  0  0  0  0
   69.2872   43.7229   52.5571 H   0  0  0  0  0  0  0  0  0  0  0  0
   70.9772   43.2564   52.3832 H   0  0  0  0  0  0  0  0  0  0  0  0
   69.8386   42.1681   53.1901 H   0  0  0  0  0  0  0  0  0  0  0  0
  1  2  2  0
  1  6  1  0
  2  3  1  0
  3  4  2  0
  3 10  1  0
  4  5  1  0
  4 16  1  0
  5  6  2  0
  6 19  1  0
  7  8  2  0
  7 12  1  0
  8  9  1  0
  8 21  1  0
  9 10  2  0
  9 22  1  0
 10 11  1  0
 11 12  2  0
 11 23  1  0
 12 20  1  0
 13 14  2  0
 13 18  1  0
 13 24  1  0
 14 15  1  0
 14 25  1  0
 15 16  2  0
 15 26  1  0
 16 17  1  0
 17 18  2  0
 17 27  1  0
 18 28  1  0
 19 29  1  0
 19 30  1  0
 20 31  1  0
 20 32  1  0
 20 33  1  0
 21 34  1  0
 21 35  1  0
 21 36  1  0
M  END
$$$$
4m
     RDKit          3D

 30 32  0  0  1  0  0  0  0  0999 V2000
   66.2804   43.0540   45.9749 N   0  0  0  0  0  0  0  0  0  0  0  0
   67.2480   42.4335   46.6688 N   0  0  0  0  0  0  0  0  0  0  0  0
   67.1170   42.1989   48.0077 C   0  0  0  0  0  0  0  0  0  0  0  0
   65.8988   42.5374   48.6478 C   0  0  0  0  0  0  0  0  0  0  0  0
   64.9373   43.2150   47.9528 N   0  0  0  0  0  0  0  0  0  0  0  0
   65.1771   43.4546   46.6455 C   0  0  0  0  0  0  0  0  0  0  0  0
   70.7063   40.6428   49.8694 N   0  0  0  0  0  0  0  0  0  0  0  0
   69.8892   41.4988   50.5338 C   0  0  0  0  0  0  0  0  0  0  0  0
   68.7239   42.0117   49.9618 C   0  0  0  0  0  0  0  0  0  0  0  0
   68.3458   41.6374   48.6589 C   0  0  0  0  0  0  0  0  0  0  0  0
   69.2107   40.7639   47.9743 C   0  0  0  0  0  0  0  0  0  0  0  0
   70.3625   40.2910   48.6059 C   0  0  0  0  0  0  0  0  0  0  0  0
   64.7225   41.5091   52.6668 C   0  0  0  0  0  0  0  0  0  0  0  0
   65.5604   40.6609   51.9508 C   0  0  0  0  0  0  0  0  0  0  0  0
   65.9267   40.9843   50.6481 C   0  0  0  0  0  0  0  0  0  0  0  0
   65.5047   42.1811   50.0527 C   0  0  0  0  0  0  0  0  0  0  0  0
   64.6512   43.0158   50.7922 C   0  0  0  0  0  0  0  0  0  0  0  0
   64.2614   42.6859   52.0896 C   0  0  0  0  0  0  0  0  0  0  0  0
   64.2262   44.1792   45.9421 N   0  0  0  0  0  0  0  0  0  0  0  0
   70.3234   41.9829   52.1347 Cl  0  0  0  0  0  0  0  0  0  0  0  0
   68.1206   42.7104   50.5196 H   0  0  0  0  0  0  0  0  0  0  0  0
   68.9882   40.4430   46.9668 H   0  0  0  0  0  0  0  0  0  0  0  0
   71.0350   39.6144   48.0994 H   0  0  0  0  0  0  0  0  0  0  0  0
   64.4210   41.2507   53.6718 H   0  0  0  0  0  0  0  0  0  0  0  0
   65.9034   39.7378   52.3989 H   0  0  0  0  0  0  0  0  0  0  0  0
   66.5424   40.2858   50.0986 H   0  0  0  0  0  0  0  0  0  0  0  0
   64.2950   43.9453   50.3739 H   0  0  0  0  0  0  0  0  0  0  0  0
   63.6029   43.3393   52.6437 H   0  0  0  0  0  0  0  0  0  0  0  0
   63.4976   44.6591   46.4613 H   0  0  0  0  0  0  0  0  0  0  0  0
   64.3793   44.3779   44.9535 H   0  0  0  0  0  0  0  0  0  0  0  0
  1  2  2  0
  1  6  1  0
  2  3  1  0
  3  4  2  0
  3 10  1  0
  4  5  1  0
  4 16  1  0
  5  6  2  0
  6 19  1  0
  7  8  2  0
  7 12  1  0
  8  9  1  0
  8 20  1  0
  9 10  2  0
  9 21  1  0
 10 11  1  0
 11 12  2  0
 11 22  1  0
 12 23  1  0
 13 14  2  0
 13 18  1  0
 13 24  1  0
 14 15  1  0
 14 25  1  0
 15 16  2  0
 15 26  1  0
 16 17  1  0
 17 18  2  0
 17 27  1  0
 18 28  1  0
 19 29  1  0
 19 30  1  0
M  END
$$$$
4i
     RDKit          3D

 36 38  0  0  1  0  0  0  0  0999 V2000
   66.4581   42.9633   46.0247 N   0  0  0  0  0  0  0  0  0  0  0  0
   67.4236   42.5069   46.8426 N   0  0  0  0  0  0  0  0  0  0  0  0
   67.1745   42.3057   48.1717 C   0  0  0  0  0  0  0  0  0  0  0  0
   65.8676   42.5151   48.6706 C   0  0  0  0  0  0  0  0  0  0  0  0
   64.9079   43.0210   47.8485 N   0  0  0  0  0  0  0  0  0  0  0  0
   65.2468   43.2354   46.5645 C   0  0  0  0  0  0  0  0  0  0  0  0
   70.5584   41.2174   50.6214 N   0  0  0  0  0  0  0  0  0  0  0  0
   69.6755   42.1680   51.0208 C   0  0  0  0  0  0  0  0  0  0  0  0
   68.5915   42.5646   50.2372 C   0  0  0  0  0  0  0  0  0  0  0  0
   68.3670   41.9481   48.9972 C   0  0  0  0  0  0  0  0  0  0  0  0
   69.2891   40.9795   48.5718 C   0  0  0  0  0  0  0  0  0  0  0  0
   70.3576   40.6397   49.4070 C   0  0  0  0  0  0  0  0  0  0  0  0
   64.4333   41.6568   52.6553 C   0  0  0  0  0  0  0  0  0  0  0  0
   65.5147   40.9491   52.1390 C   0  0  0  0  0  0  0  0  0  0  0  0
   65.9537   41.1924   50.8408 C   0  0  0  0  0  0  0  0  0  0  0  0
   65.3800   42.2063   50.0557 C   0  0  0  0  0  0  0  0  0  0  0  0
   64.3010   42.9169   50.6066 C   0  0  0  0  0  0  0  0  0  0  0  0
   63.8233   42.6364   51.8814 C   0  0  0  0  0  0  0  0  0  0  0  0
   64.2711   43.7848   45.7510 N   0  0  0  0  0  0  0  0  0  0  0  0
   71.3524   39.5765   48.9905 C   0  0  0  0  0  0  0  0  0  0  0  0
   69.8975   42.7591   52.4001 C   0  0  0  0  0  0  0  0  0  0  0  0
   67.9090   43.3180   50.5997 H   0  0  0  0  0  0  0  0  0  0  0  0
   69.1639   40.4858   47.6208 H   0  0  0  0  0  0  0  0  0  0  0  0
   64.0863   41.4594   53.6586 H   0  0  0  0  0  0  0  0  0  0  0  0
   66.1645   40.0457   52.9049 F   0  0  0  0  0  0  0  0  0  0  0  0
   66.7601   40.5814   50.4634 H   0  0  0  0  0  0  0  0  0  0  0  0
   63.8249   43.7143   50.0548 H   0  0  0  0  0  0  0  0  0  0  0  0
   62.7835   43.3420   52.3606 F   0  0  0  0  0  0  0  0  0  0  0  0
   63.4247   44.1594   46.1698 H   0  0  0  0  0  0  0  0  0  0  0  0
   64.4549   43.8766   44.7526 H   0  0  0  0  0  0  0  0  0  0  0  0
   70.8382   38.7285   48.5312 H   0  0  0  0  0  0  0  0  0  0  0  0
   72.0397   39.9895   48.2533 H   0  0  0  0  0  0  0  0  0  0  0  0
   71.9301   39.1932   49.8346 H   0  0  0  0  0  0  0  0  0  0  0  0
   69.1780   43.5481   52.6210 H   0  0  0  0  0  0  0  0  0  0  0  0
   70.8965   43.1891   52.4850 H   0  0  0  0  0  0  0  0  0  0  0  0
   69.7908   41.9862   53.1611 H   0  0  0  0  0  0  0  0  0  0  0  0
  1  2  2  0
  1  6  1  0
  2  3  1  0
  3  4  2  0
  3 10  1  0
  4  5  1  0
  4 16  1  0
  5  6  2  0
  6 19  1  0
  7  8  2  0
  7 12  1  0
  8  9  1  0
  8 21  1  0
  9 10  2  0
  9 22  1  0
 10 11  1  0
 11 12  2  0
 11 23  1  0
 12 20  1  0
 13 14  2  0
 13 18  1  0
 13 24  1  0
 14 15  1  0
 14 25  1  0
 15 16  2  0
 15 26  1  0
 16 17  1  0
 17 18  2  0
 17 27  1  0
 18 28  1  0
 19 29  1  0
 19 30  1  0
 20 31  1  0
 20 32  1  0
 20 33  1  0
 21 34  1  0
 21 35  1  0
 21 36  1  0
M  END
$$$$
4h
     RDKit          3D

 36 38  0  0  1  0  0  0  0  0999 V2000
   66.4702   43.0147   46.0491 N   0  0  0  0  0  0  0  0  0  0  0  0
   67.4245   42.5622   46.8770 N   0  0  0  0  0  0  0  0  0  0  0  0
   67.1588   42.3465   48.1985 C   0  0  0  0  0  0  0  0  0  0  0  0
   65.8400   42.5360   48.6811 C   0  0  0  0  0  0  0  0  0  0  0  0
   64.8793   43.0259   47.8456 N   0  0  0  0  0  0  0  0  0  0  0  0
   65.2439   43.2558   46.5652 C   0  0  0  0  0  0  0  0  0  0  0  0
   70.5890   41.1810   50.5708 N   0  0  0  0  0  0  0  0  0  0  0  0
   69.6715   42.0639   51.0419 C   0  0  0  0  0  0  0  0  0  0  0  0
   68.5603   42.4715   50.2989 C   0  0  0  0  0  0  0  0  0  0  0  0
   68.3486   41.9454   49.0161 C   0  0  0  0  0  0  0  0  0  0  0  0
   69.3054   41.0436   48.5223 C   0  0  0  0  0  0  0  0  0  0  0  0
   70.3958   40.6839   49.3212 C   0  0  0  0  0  0  0  0  0  0  0  0
   64.4682   41.6295   52.6604 C   0  0  0  0  0  0  0  0  0  0  0  0
   63.9360   42.7141   51.9748 C   0  0  0  0  0  0  0  0  0  0  0  0
   64.3809   42.9983   50.6873 C   0  0  0  0  0  0  0  0  0  0  0  0
   65.3561   42.2084   50.0626 C   0  0  0  0  0  0  0  0  0  0  0  0
   65.8433   41.0935   50.7592 C   0  0  0  0  0  0  0  0  0  0  0  0
   65.4263   40.8254   52.0581 C   0  0  0  0  0  0  0  0  0  0  0  0
   64.2964   43.8078   45.7177 N   0  0  0  0  0  0  0  0  0  0  0  0
   71.4361   39.7011   48.8169 C   0  0  0  0  0  0  0  0  0  0  0  0
   69.9171   42.6015   52.4388 C   0  0  0  0  0  0  0  0  0  0  0  0
   67.8674   43.1875   50.7130 H   0  0  0  0  0  0  0  0  0  0  0  0
   69.1970   40.6088   47.5403 H   0  0  0  0  0  0  0  0  0  0  0  0
   64.0607   41.3601   53.9200 F   0  0  0  0  0  0  0  0  0  0  0  0
   63.1945   43.3425   52.4452 H   0  0  0  0  0  0  0  0  0  0  0  0
   63.9750   43.8637   50.1853 H   0  0  0  0  0  0  0  0  0  0  0  0
   66.5666   40.4330   50.3010 H   0  0  0  0  0  0  0  0  0  0  0  0
   65.8280   39.9756   52.5919 H   0  0  0  0  0  0  0  0  0  0  0  0
   63.4725   44.2422   46.1218 H   0  0  0  0  0  0  0  0  0  0  0  0
   64.5523   43.9862   44.7459 H   0  0  0  0  0  0  0  0  0  0  0  0
   70.9655   38.8908   48.2574 H   0  0  0  0  0  0  0  0  0  0  0  0
   72.1385   40.2074   48.1566 H   0  0  0  0  0  0  0  0  0  0  0  0
   71.9986   39.2529   49.6373 H   0  0  0  0  0  0  0  0  0  0  0  0
   69.2160   43.3994   52.6889 H   0  0  0  0  0  0  0  0  0  0  0  0
   70.9250   43.0111   52.5266 H   0  0  0  0  0  0  0  0  0  0  0  0
   69.7957   41.8032   53.1719 H   0  0  0  0  0  0  0  0  0  0  0  0
  1  2  2  0
  1  6  1  0
  2  3  1  0
  3  4  2  0
  3 10  1  0
  4  5  1  0
  4 16  1  0
  5  6  2  0
  6 19  1  0
  7  8  2  0
  7 12  1  0
  8  9  1  0
  8 21  1  0
  9 10  2  0
  9 22  1  0
 10 11  1  0
 11 12  2  0
 11 23  1  0
 12 20  1  0
 13 14  2  0
 13 18  1  0
 13 24  1  0
 14 15  1  0
 14 25  1  0
 15 16  2  0
 15 26  1  0
 16 17  1  0
 17 18  2  0
 17 27  1  0
 18 28  1  0
 19 29  1  0
 19 30  1  0
 20 31  1  0
 20 32  1  0
 20 33  1  0
 21 34  1  0
 21 35  1  0
 21 36  1  0
M  END
$$$$
4j
     RDKit          3D

 36 38  0  0  1  0  0  0  0  0999 V2000
   66.4756   42.9674   46.0408 N   0  0  0  0  0  0  0  0  0  0  0  0
   67.4256   42.5089   46.8719 N   0  0  0  0  0  0  0  0  0  0  0  0
   67.1642   42.3132   48.1999 C   0  0  0  0  0  0  0  0  0  0  0  0
   65.8474   42.5241   48.6846 C   0  0  0  0  0  0  0  0  0  0  0  0
   64.9035   43.0415   47.8498 N   0  0  0  0  0  0  0  0  0  0  0  0
   65.2609   43.2459   46.5655 C   0  0  0  0  0  0  0  0  0  0  0  0
   70.6307   41.2352   50.5626 N   0  0  0  0  0  0  0  0  0  0  0  0
   69.7002   42.1036   51.0339 C   0  0  0  0  0  0  0  0  0  0  0  0
   68.5777   42.4812   50.2930 C   0  0  0  0  0  0  0  0  0  0  0  0
   68.3653   41.9397   49.0155 C   0  0  0  0  0  0  0  0  0  0  0  0
   69.3371   41.0555   48.5232 C   0  0  0  0  0  0  0  0  0  0  0  0
   70.4371   40.7240   49.3197 C   0  0  0  0  0  0  0  0  0  0  0  0
   64.4053   41.6422   52.6677 C   0  0  0  0  0  0  0  0  0  0  0  0
   65.4772   40.9321   52.1358 C   0  0  0  0  0  0  0  0  0  0  0  0
   65.9061   41.1776   50.8365 C   0  0  0  0  0  0  0  0  0  0  0  0
   65.3394   42.2005   50.0627 C   0  0  0  0  0  0  0  0  0  0  0  0
   64.2516   42.8970   50.6177 C   0  0  0  0  0  0  0  0  0  0  0  0
   63.7825   42.6223   51.9016 C   0  0  0  0  0  0  0  0  0  0  0  0
   64.3069   43.7955   45.7254 N   0  0  0  0  0  0  0  0  0  0  0  0
   71.4902   39.7609   48.8141 C   0  0  0  0  0  0  0  0  0  0  0  0
   69.9360   42.6470   52.4306 C   0  0  0  0  0  0  0  0  0  0  0  0
   67.8640   43.1716   50.7130 H   0  0  0  0  0  0  0  0  0  0  0  0
   69.2280   40.6137   47.5439 H   0  0  0  0  0  0  0  0  0  0  0  0
   64.0763   41.4449   53.6770 H   0  0  0  0  0  0  0  0  0  0  0  0
   66.1384   40.0344   52.8972 F   0  0  0  0  0  0  0  0  0  0  0  0
   66.7120   40.5698   50.4529 H   0  0  0  0  0  0  0  0  0  0  0  0
   63.7709   43.6957   50.0719 H   0  0  0  0  0  0  0  0  0  0  0  0
   62.9553   43.1859   52.3068 H   0  0  0  0  0  0  0  0  0  0  0  0
   63.4689   44.2055   46.1333 H   0  0  0  0  0  0  0  0  0  0  0  0
   64.5148   43.8972   44.7333 H   0  0  0  0  0  0  0  0  0  0  0  0
   71.0316   38.9374   48.2610 H   0  0  0  0  0  0  0  0  0  0  0  0
   72.1631   40.2930   48.1400 H   0  0  0  0  0  0  0  0  0  0  0  0
   72.0780   39.3296   49.6304 H   0  0  0  0  0  0  0  0  0  0  0  0
   69.2673   43.4798   52.6529 H   0  0  0  0  0  0  0  0  0  0  0  0
   70.9604   43.0062   52.5422 H   0  0  0  0  0  0  0  0  0  0  0  0
   69.7576   41.8668   53.1717 H   0  0  0  0  0  0  0  0  0  0  0  0
  1  2  2  0
  1  6  1  0
  2  3  1  0
  3  4  2  0
  3 10  1  0
  4  5  1  0
  4 16  1  0
  5  6  2  0
  6 19  1  0
  7  8  2  0
  7 12  1  0
  8  9  1  0
  8 21  1  0
  9 10  2  0
  9 22  1  0
 10 11  1  0
 11 12  2  0
 11 23  1  0
 12 20  1  0
 13 14  2  0
 13 18  1  0
 13 24  1  0
 14 15  1  0
 14 25  1  0
 15 16  2  0
 15 26  1  0
 16 17  1  0
 17 18  2  0
 17 27  1  0
 18 28  1  0
 19 29  1  0
 19 30  1  0
 20 31  1  0
 20 32  1  0
 20 33  1  0
 21 34  1  0
 21 35  1  0
 21 36  1  0
M  END
$$$$
4k
     RDKit          3D

 36 38  0  0  1  0  0  0  0  0999 V2000
   66.4603   42.9758   46.0331 N   0  0  0  0  0  0  0  0  0  0  0  0
   67.4190   42.5247   46.8606 N   0  0  0  0  0  0  0  0  0  0  0  0
   67.1611   42.3303   48.1885 C   0  0  0  0  0  0  0  0  0  0  0  0
   65.8518   42.5462   48.6821 C   0  0  0  0  0  0  0  0  0  0  0  0
   64.8983   43.0530   47.8507 N   0  0  0  0  0  0  0  0  0  0  0  0
   65.2439   43.2493   46.5594 C   0  0  0  0  0  0  0  0  0  0  0  0
   70.5774   41.1911   50.5820 N   0  0  0  0  0  0  0  0  0  0  0  0
   69.7196   42.1556   50.9990 C   0  0  0  0  0  0  0  0  0  0  0  0
   68.5999   42.5396   50.2561 C   0  0  0  0  0  0  0  0  0  0  0  0
   68.3519   41.9469   49.0100 C   0  0  0  0  0  0  0  0  0  0  0  0
   69.2623   40.9802   48.5634 C   0  0  0  0  0  0  0  0  0  0  0  0
   70.3351   40.6009   49.3798 C   0  0  0  0  0  0  0  0  0  0  0  0
   64.4633   41.6366   52.6602 C   0  0  0  0  0  0  0  0  0  0  0  0
   63.8984   42.6926   51.9547 C   0  0  0  0  0  0  0  0  0  0  0  0
   64.3511   42.9790   50.6706 C   0  0  0  0  0  0  0  0  0  0  0  0
   65.3700   42.2240   50.0692 C   0  0  0  0  0  0  0  0  0  0  0  0
   65.8943   41.1409   50.7901 C   0  0  0  0  0  0  0  0  0  0  0  0
   65.4604   40.8600   52.0816 C   0  0  0  0  0  0  0  0  0  0  0  0
   64.2762   43.7806   45.7165 N   0  0  0  0  0  0  0  0  0  0  0  0
   71.2623   39.4635   48.9561 C   0  0  0  0  0  0  0  0  0  0  0  0
   70.0495   42.8023   52.3315 C   0  0  0  0  0  0  0  0  0  0  0  0
   67.9200   43.2807   50.6414 H   0  0  0  0  0  0  0  0  0  0  0  0
   69.1107   40.4947   47.6109 H   0  0  0  0  0  0  0  0  0  0  0  0
   64.1223   41.4138   53.6607 H   0  0  0  0  0  0  0  0  0  0  0  0
   63.1227   43.2955   52.4055 H   0  0  0  0  0  0  0  0  0  0  0  0
   63.9202   43.8248   50.1557 H   0  0  0  0  0  0  0  0  0  0  0  0
   66.6444   40.4986   50.3529 H   0  0  0  0  0  0  0  0  0  0  0  0
   65.8899   40.0342   52.6295 H   0  0  0  0  0  0  0  0  0  0  0  0
   63.4432   44.1885   46.1307 H   0  0  0  0  0  0  0  0  0  0  0  0
   64.4891   43.9212   44.7295 H   0  0  0  0  0  0  0  0  0  0  0  0
   72.2731   39.2686   49.8065 F   0  0  0  0  0  0  0  0  0  0  0  0
   70.5591   38.3336   48.8800 F   0  0  0  0  0  0  0  0  0  0  0  0
   71.7668   39.7286   47.7524 F   0  0  0  0  0  0  0  0  0  0  0  0
   69.2939   43.5335   52.6260 H   0  0  0  0  0  0  0  0  0  0  0  0
   71.0084   43.3197   52.2731 H   0  0  0  0  0  0  0  0  0  0  0  0
   70.1183   42.0485   53.1178 H   0  0  0  0  0  0  0  0  0  0  0  0
  1  2  2  0
  1  6  1  0
  2  3  1  0
  3  4  2  0
  3 10  1  0
  4  5  1  0
  4 16  1  0
  5  6  2  0
  6 19  1  0
  7  8  2  0
  7 12  1  0
  8  9  1  0
  8 21  1  0
  9 10  2  0
  9 22  1  0
 10 11  1  0
 11 12  2  0
 11 23  1  0
 12 20  1  0
 13 14  2  0
 13 18  1  0
 13 24  1  0
 14 15  1  0
 14 25  1  0
 15 16  2  0
 15 26  1  0
 16 17  1  0
 17 18  2  0
 17 27  1  0
 18 28  1  0
 19 29  1  0
 19 30  1  0
 20 31  1  0
 20 32  1  0
 20 33  1  0
 21 34  1  0
 21 35  1  0
 21 36  1  0
M  END
$$$$
