ligand-14
     RDKit          3D

 67 71  0  0  0  0  0  0  0  0999 V2000
   46.4581   40.3075   28.8337 C   0  0  0  0  0  0  0  0  0  0  0  0
   45.7251   38.9865   29.8903 S   0  0  0  0  0  0  0  0  0  0  0  0
   46.4352   39.3213   31.5014 C   0  0  0  0  0  0  0  0  0  0  0  0
   47.8255   39.4782   31.6122 C   0  0  0  0  0  0  0  0  0  0  0  0
   48.4157   39.7741   32.8431 C   0  0  0  0  0  0  0  0  0  0  0  0
   47.6056   39.8831   33.9831 C   0  0  0  0  0  0  0  0  0  0  0  0
   46.2152   39.6861   33.8921 C   0  0  0  0  0  0  0  0  0  0  0  0
   45.6150   39.4002   32.6513 C   0  0  0  0  0  0  0  0  0  0  0  0
   44.1044   39.1035   32.5601 C   0  0  1  0  0  0  0  0  0  0  0  0
   43.8613   37.5839   32.5964 C   0  0  0  0  0  0  0  0  0  0  0  0
   43.5703   37.2810   34.0656 C   0  0  0  0  0  0  0  0  0  0  0  0
   42.8927   38.5612   34.5784 C   0  0  0  0  0  0  0  0  0  0  0  0
   43.3252   39.6424   33.6911 N   0  0  0  0  0  0  0  0  0  0  0  0
   42.8378   40.9431   33.8040 C   0  0  0  0  0  0  0  0  0  0  0  0
   42.0280   41.2327   34.6744 O   0  0  0  0  0  0  0  0  0  0  0  0
   43.3902   41.9844   32.8166 C   0  0  0  0  0  0  0  0  0  0  0  0
   42.5827   43.2259   32.8393 N   0  0  0  0  0  0  0  0  0  0  0  0
   41.5034   43.4400   32.0394 C   0  0  0  0  0  0  0  0  0  0  0  0
   41.2423   42.7428   31.0677 O   0  0  0  0  0  0  0  0  0  0  0  0
   39.4965   44.9246   31.8123 C   0  0  0  0  0  0  0  0  0  0  0  0
   38.4470   45.3443   32.8329 C   0  0  0  0  0  0  0  0  0  0  0  0
   37.7595   46.5660   32.7055 C   0  0  0  0  0  0  0  0  0  0  0  0
   36.7599   46.9259   33.6361 C   0  0  0  0  0  0  0  0  0  0  0  0
   35.9626   48.2179   33.4588 C   0  0  1  0  0  0  0  0  0  0  0  0
   34.5720   48.0492   34.0880 C   0  0  0  0  0  0  0  0  0  0  0  0
   34.7608   47.6754   35.5772 C   0  0  1  0  0  0  0  0  0  0  0  0
   35.5282   46.4136   35.6745 N   0  0  0  0  0  0  0  0  0  0  0  0
   36.4778   46.0639   34.7139 C   0  0  0  0  0  0  0  0  0  0  0  0
   37.1553   44.8522   34.8413 C   0  0  0  0  0  0  0  0  0  0  0  0
   38.1349   44.4925   33.9008 C   0  0  0  0  0  0  0  0  0  0  0  0
   35.5129   48.8321   36.3101 C   0  0  2  0  0  0  0  0  0  0  0  0
   34.6752   49.9936   36.3926 O   0  0  0  0  0  0  0  0  0  0  0  0
   36.8538   49.1511   35.5713 C   0  0  0  0  0  0  0  0  0  0  0  0
   36.6046   49.3250   34.1517 O   0  0  0  0  0  0  0  0  0  0  0  0
   41.0260   44.9280   33.3128 H   0  0  0  0  0  0  0  0  0  0  0  0
   40.7454   44.4906   32.4516 N   0  0  0  0  0  0  0  0  0  0  0  0
   33.8245   49.7044   36.8016 H   0  0  0  0  0  0  0  0  0  0  0  0
   42.6436   43.8139   33.6607 H   0  0  0  0  0  0  0  0  0  0  0  0
   35.7773   46.1308   36.6239 H   0  0  0  0  0  0  0  0  0  0  0  0
   46.1182   40.1807   27.7933 H   0  0  0  0  0  0  0  0  0  0  0  0
   46.1400   41.2873   29.2059 H   0  0  0  0  0  0  0  0  0  0  0  0
   47.5580   40.2452   28.8639 H   0  0  0  0  0  0  0  0  0  0  0  0
   37.2855   50.0693   35.9936 H   0  0  0  0  0  0  0  0  0  0  0  0
   37.5721   48.3393   35.7397 H   0  0  0  0  0  0  0  0  0  0  0  0
   44.4305   42.2016   33.1075 H   0  0  0  0  0  0  0  0  0  0  0  0
   43.3997   41.5667   31.8056 H   0  0  0  0  0  0  0  0  0  0  0  0
   39.0950   44.1169   31.1902 H   0  0  0  0  0  0  0  0  0  0  0  0
   39.7284   45.7658   31.1343 H   0  0  0  0  0  0  0  0  0  0  0  0
   41.8025   38.4636   34.5178 H   0  0  0  0  0  0  0  0  0  0  0  0
   43.1828   38.7682   35.6190 H   0  0  0  0  0  0  0  0  0  0  0  0
   42.9384   36.3921   34.1733 H   0  0  0  0  0  0  0  0  0  0  0  0
   44.5097   37.1179   34.6055 H   0  0  0  0  0  0  0  0  0  0  0  0
   49.4859   39.9018   32.9237 H   0  0  0  0  0  0  0  0  0  0  0  0
   48.0558   40.1399   34.9438 H   0  0  0  0  0  0  0  0  0  0  0  0
   48.4556   39.3590   30.7321 H   0  0  0  0  0  0  0  0  0  0  0  0
   42.9811   37.3571   31.9956 H   0  0  0  0  0  0  0  0  0  0  0  0
   44.7103   37.0131   32.2053 H   0  0  0  0  0  0  0  0  0  0  0  0
   45.6250   39.7452   34.8021 H   0  0  0  0  0  0  0  0  0  0  0  0
   36.9137   44.1908   35.6597 H   0  0  0  0  0  0  0  0  0  0  0  0
   38.6429   43.5312   33.9987 H   0  0  0  0  0  0  0  0  0  0  0  0
   34.0106   47.2716   33.5660 H   0  0  0  0  0  0  0  0  0  0  0  0
   34.0039   48.9807   33.9800 H   0  0  0  0  0  0  0  0  0  0  0  0
   37.9811   47.2375   31.8772 H   0  0  0  0  0  0  0  0  0  0  0  0
   35.7519   48.4993   37.3194 H   0  0  0  0  0  0  0  0  0  0  0  0
   35.8634   48.4606   32.3994 H   0  0  0  0  0  0  0  0  0  0  0  0
   33.7704   47.5363   36.0365 H   0  0  0  0  0  0  0  0  0  0  0  0
   43.7055   39.4965   31.6209 H   0  0  0  0  0  0  0  0  0  0  0  0
  1  2  1  0
  1 40  1  0
  1 41  1  0
  1 42  1  0
  2  3  1  0
  3  4  2  0
  3  8  1  0
  4  5  1  0
  4 55  1  0
  5  6  2  0
  5 53  1  0
  6  7  1  0
  6 54  1  0
  7  8  2  0
  7 58  1  0
  8  9  1  0
  9 10  1  0
  9 13  1  0
  9 67  1  6
 10 11  1  0
 10 56  1  0
 10 57  1  0
 11 12  1  0
 11 51  1  0
 11 52  1  0
 12 13  1  0
 12 49  1  0
 12 50  1  0
 13 14  1  0
 14 15  2  0
 14 16  1  0
 16 17  1  0
 16 45  1  0
 16 46  1  0
 17 18  1  0
 17 38  1  0
 18 19  2  0
 18 36  1  0
 20 21  1  0
 20 36  1  0
 20 47  1  0
 20 48  1  0
 21 22  2  0
 21 30  1  0
 22 23  1  0
 22 63  1  0
 23 24  1  0
 23 28  2  0
 24 25  1  0
 24 34  1  0
 24 65  1  6
 25 26  1  0
 25 61  1  0
 25 62  1  0
 26 27  1  0
 26 31  1  0
 26 66  1  1
 27 28  1  0
 27 39  1  0
 28 29  1  0
 29 30  2  0
 29 59  1  0
 30 60  1  0
 31 32  1  0
 31 33  1  0
 31 64  1  1
 32 37  1  0
 33 34  1  0
 33 43  1  0
 33 44  1  0
 35 36  1  0
M  END
$$$$
ligand-16
     RDKit          3D

 67 71  0  0  0  0  0  0  0  0999 V2000
   45.7895   38.8509   30.0292 S   0  0  0  0  0  0  0  0  0  0  0  0
   40.9969   42.6660   31.3711 O   0  0  0  0  0  0  0  0  0  0  0  0
   41.9857   41.4817   34.5920 O   0  0  0  0  0  0  0  0  0  0  0  0
   33.2501   47.2460   35.7215 O   0  0  0  0  0  0  0  0  0  0  0  0
   35.4914   48.8807   33.2513 O   0  0  0  0  0  0  0  0  0  0  0  0
   42.6989   43.4174   32.6799 N   0  0  0  0  0  0  0  0  0  0  0  0
   40.9590   44.7930   32.1986 N   0  0  0  0  0  0  0  0  0  0  0  0
   36.1561   46.7890   35.9438 N   0  0  0  0  0  0  0  0  0  0  0  0
   43.1865   39.8027   33.6438 N   0  0  0  0  0  0  0  0  0  0  0  0
   45.6647   40.5041   29.2634 C   0  0  0  0  0  0  0  0  0  0  0  0
   34.4425   47.9812   33.7021 C   0  0  0  0  0  0  0  0  0  0  0  0
   43.4451   42.1356   32.7564 C   0  0  0  0  0  0  0  0  0  0  0  0
   39.6475   45.2077   31.6903 C   0  0  0  0  0  0  0  0  0  0  0  0
   42.6510   38.7506   34.5118 C   0  0  0  0  0  0  0  0  0  0  0  0
   43.2752   37.4310   34.0463 C   0  0  0  0  0  0  0  0  0  0  0  0
   48.2958   39.8140   33.0712 C   0  0  0  0  0  0  0  0  0  0  0  0
   47.4394   39.9417   34.1688 C   0  0  0  0  0  0  0  0  0  0  0  0
   47.7741   39.4699   31.8118 C   0  0  0  0  0  0  0  0  0  0  0  0
   43.6779   37.7056   32.5932 C   0  0  0  0  0  0  0  0  0  0  0  0
   46.0611   39.7452   34.0172 C   0  0  0  0  0  0  0  0  0  0  0  0
   37.4794   45.1104   34.8374 C   0  0  0  0  0  0  0  0  0  0  0  0
   38.3442   44.7224   33.8089 C   0  0  0  0  0  0  0  0  0  0  0  0
   36.5093   49.1503   35.4180 C   0  0  0  0  0  0  0  0  0  0  0  0
   38.1440   46.9267   32.8141 C   0  0  0  0  0  0  0  0  0  0  0  0
   41.5089   43.5524   32.0323 C   0  0  0  0  0  0  0  0  0  0  0  0
   42.7979   41.1332   33.7429 C   0  0  0  0  0  0  0  0  0  0  0  0
   46.3959   39.2735   31.6502 C   0  0  0  0  0  0  0  0  0  0  0  0
   34.1998   48.1959   35.2294 C   0  0  2  0  0  0  0  0  0  0  0  0
   36.7607   48.7653   33.9502 C   0  0  1  0  0  0  0  0  0  0  0  0
   35.5378   48.1301   36.0195 C   0  0  1  0  0  0  0  0  0  0  0  0
   36.9714   46.4113   34.8846 C   0  0  0  0  0  0  0  0  0  0  0  0
   44.0117   39.2051   32.5639 C   0  0  2  0  0  0  0  0  0  0  0  0
   38.6915   45.6355   32.7975 C   0  0  0  0  0  0  0  0  0  0  0  0
   45.5195   39.4212   32.7476 C   0  0  0  0  0  0  0  0  0  0  0  0
   37.2889   47.3245   33.8627 C   0  0  0  0  0  0  0  0  0  0  0  0
   32.6716   47.7549   36.3547 H   0  0  0  0  0  0  0  0  0  0  0  0
   43.0331   44.2248   33.1880 H   0  0  0  0  0  0  0  0  0  0  0  0
   41.5230   45.4699   32.6998 H   0  0  0  0  0  0  0  0  0  0  0  0
   36.2519   46.2556   36.8034 H   0  0  0  0  0  0  0  0  0  0  0  0
   45.4105   40.4086   28.1991 H   0  0  0  0  0  0  0  0  0  0  0  0
   44.8981   41.0938   29.7741 H   0  0  0  0  0  0  0  0  0  0  0  0
   46.6346   41.0117   29.3501 H   0  0  0  0  0  0  0  0  0  0  0  0
   34.7229   46.9412   33.5224 H   0  0  0  0  0  0  0  0  0  0  0  0
   33.5110   48.1852   33.1587 H   0  0  0  0  0  0  0  0  0  0  0  0
   44.4703   42.3121   33.1026 H   0  0  0  0  0  0  0  0  0  0  0  0
   43.4891   41.6792   31.7652 H   0  0  0  0  0  0  0  0  0  0  0  0
   39.1740   44.3908   31.1399 H   0  0  0  0  0  0  0  0  0  0  0  0
   39.7900   46.0401   30.9855 H   0  0  0  0  0  0  0  0  0  0  0  0
   41.5626   38.7133   34.3952 H   0  0  0  0  0  0  0  0  0  0  0  0
   42.9055   38.9560   35.5666 H   0  0  0  0  0  0  0  0  0  0  0  0
   42.5922   36.5821   34.1227 H   0  0  0  0  0  0  0  0  0  0  0  0
   44.1657   37.2068   34.6490 H   0  0  0  0  0  0  0  0  0  0  0  0
   49.3645   39.9913   33.1881 H   0  0  0  0  0  0  0  0  0  0  0  0
   47.8352   40.2271   35.1460 H   0  0  0  0  0  0  0  0  0  0  0  0
   48.4368   39.3717   30.9614 H   0  0  0  0  0  0  0  0  0  0  0  0
   42.8273   37.5199   31.9396 H   0  0  0  0  0  0  0  0  0  0  0  0
   44.5215   37.0751   32.2736 H   0  0  0  0  0  0  0  0  0  0  0  0
   45.4082   39.8433   34.8778 H   0  0  0  0  0  0  0  0  0  0  0  0
   37.1961   44.3980   35.6105 H   0  0  0  0  0  0  0  0  0  0  0  0
   38.7523   43.7116   33.7913 H   0  0  0  0  0  0  0  0  0  0  0  0
   36.0806   50.1610   35.4753 H   0  0  0  0  0  0  0  0  0  0  0  0
   37.4510   49.1562   35.9723 H   0  0  0  0  0  0  0  0  0  0  0  0
   38.3975   47.6391   32.0305 H   0  0  0  0  0  0  0  0  0  0  0  0
   33.7901   49.2063   35.3470 H   0  0  0  0  0  0  0  0  0  0  0  0
   37.4889   49.4554   33.5137 H   0  0  0  0  0  0  0  0  0  0  0  0
   35.3425   48.3865   37.0676 H   0  0  0  0  0  0  0  0  0  0  0  0
   43.6871   39.5994   31.6004 H   0  0  0  0  0  0  0  0  0  0  0  0
  1 10  1  0
  1 27  1  0
  2 25  2  0
  3 26  2  0
  4 28  1  0
  4 36  1  0
  5 11  1  0
  5 29  1  0
  6 12  1  0
  6 25  1  0
  6 37  1  0
  7 13  1  0
  7 25  1  0
  7 38  1  0
  8 30  1  0
  8 31  1  0
  8 39  1  0
  9 14  1  0
  9 26  1  0
  9 32  1  0
 10 40  1  0
 10 41  1  0
 10 42  1  0
 11 28  1  0
 11 43  1  0
 11 44  1  0
 12 26  1  0
 12 45  1  0
 12 46  1  0
 13 33  1  0
 13 47  1  0
 13 48  1  0
 14 15  1  0
 14 49  1  0
 14 50  1  0
 15 19  1  0
 15 51  1  0
 15 52  1  0
 16 17  2  0
 16 18  1  0
 16 53  1  0
 17 20  1  0
 17 54  1  0
 18 27  2  0
 18 55  1  0
 19 32  1  0
 19 56  1  0
 19 57  1  0
 20 34  2  0
 20 58  1  0
 21 22  1  0
 21 31  2  0
 21 59  1  0
 22 33  2  0
 22 60  1  0
 23 29  1  0
 23 30  1  0
 23 61  1  0
 23 62  1  0
 24 33  1  0
 24 35  2  0
 24 63  1  0
 27 34  1  0
 28 30  1  0
 28 64  1  6
 29 35  1  0
 29 65  1  6
 30 66  1  1
 31 35  1  0
 32 34  1  0
 32 67  1  6
M  END
$$$$
ligand-2
     RDKit          3D

 54 56  0  0  0  0  0  0  0  0999 V2000
   45.8400   40.9700   29.6100 C   0  0  0  0  0  0  0  0  0  0  0  0
   46.1200   39.2500   30.2000 S   0  0  0  0  0  0  0  0  0  0  0  0
   46.5400   39.5500   31.9200 C   0  0  0  0  0  0  0  0  0  0  0  0
   47.8800   39.7800   32.2500 C   0  0  0  0  0  0  0  0  0  0  0  0
   48.2500   40.0800   33.5700 C   0  0  0  0  0  0  0  0  0  0  0  0
   47.2600   40.1400   34.5700 C   0  0  0  0  0  0  0  0  0  0  0  0
   45.9200   39.8900   34.2500 C   0  0  0  0  0  0  0  0  0  0  0  0
   45.5400   39.5900   32.9200 C   0  0  0  0  0  0  0  0  0  0  0  0
   44.0800   39.2800   32.5700 C   0  0  1  0  0  0  0  0  0  0  0  0
   43.8400   37.7700   32.5000 C   0  0  0  0  0  0  0  0  0  0  0  0
   43.2200   37.4100   33.8600 C   0  0  0  0  0  0  0  0  0  0  0  0
   42.4700   38.6800   34.2700 C   0  0  0  0  0  0  0  0  0  0  0  0
   43.1100   39.7900   33.5600 N   0  0  0  0  0  0  0  0  0  0  0  0
   42.7500   41.1100   33.7600 C   0  0  0  0  0  0  0  0  0  0  0  0
   41.9400   41.4100   34.6300 O   0  0  0  0  0  0  0  0  0  0  0  0
   43.3900   42.1600   32.8300 C   0  0  0  0  0  0  0  0  0  0  0  0
   42.6200   43.4300   32.8300 N   0  0  0  0  0  0  0  0  0  0  0  0
   41.4700   43.5500   32.1200 C   0  0  0  0  0  0  0  0  0  0  0  0
   41.0800   42.6900   31.3500 O   0  0  0  0  0  0  0  0  0  0  0  0
   39.5200   45.0600   31.7300 C   0  0  0  0  0  0  0  0  0  0  0  0
   38.4200   45.2600   32.7700 C   0  0  0  0  0  0  0  0  0  0  0  0
   37.4400   46.2500   32.5700 C   0  0  0  0  0  0  0  0  0  0  0  0
   36.4100   46.4100   33.5100 C   0  0  0  0  0  0  0  0  0  0  0  0
   35.4600   45.8500   35.6500 N   0  0  0  0  0  0  0  0  0  0  0  0
   36.3800   45.6200   34.6600 C   0  0  0  0  0  0  0  0  0  0  0  0
   37.3500   44.6300   34.8500 C   0  0  0  0  0  0  0  0  0  0  0  0
   38.3600   44.4400   33.9000 C   0  0  0  0  0  0  0  0  0  0  0  0
   41.2500   45.3900   32.9500 H   0  0  0  0  0  0  0  0  0  0  0  0
   40.8100   44.7200   32.3400 N   0  0  0  0  0  0  0  0  0  0  0  0
   35.7900   45.7100   36.6100 H   0  0  0  0  0  0  0  0  0  0  0  0
   34.8100   46.6300   35.5500 H   0  0  0  0  0  0  0  0  0  0  0  0
   42.7800   44.1000   33.5800 H   0  0  0  0  0  0  0  0  0  0  0  0
   45.5100   40.9500   28.5700 H   0  0  0  0  0  0  0  0  0  0  0  0
   45.0600   41.4500   30.2300 H   0  0  0  0  0  0  0  0  0  0  0  0
   46.7600   41.5500   29.7000 H   0  0  0  0  0  0  0  0  0  0  0  0
   44.4200   42.3300   33.1700 H   0  0  0  0  0  0  0  0  0  0  0  0
   43.4300   41.7600   31.8200 H   0  0  0  0  0  0  0  0  0  0  0  0
   39.2100   44.2500   31.0500 H   0  0  0  0  0  0  0  0  0  0  0  0
   39.6400   45.9700   31.1300 H   0  0  0  0  0  0  0  0  0  0  0  0
   41.4200   38.6200   33.9500 H   0  0  0  0  0  0  0  0  0  0  0  0
   42.5200   38.8400   35.3500 H   0  0  0  0  0  0  0  0  0  0  0  0
   42.5600   36.5400   33.7900 H   0  0  0  0  0  0  0  0  0  0  0  0
   44.0100   37.2200   34.5900 H   0  0  0  0  0  0  0  0  0  0  0  0
   49.2900   40.2800   33.8200 H   0  0  0  0  0  0  0  0  0  0  0  0
   47.5400   40.3900   35.5900 H   0  0  0  0  0  0  0  0  0  0  0  0
   48.6400   39.7300   31.4700 H   0  0  0  0  0  0  0  0  0  0  0  0
   43.1200   37.5500   31.7100 H   0  0  0  0  0  0  0  0  0  0  0  0
   44.7600   37.2000   32.3000 H   0  0  0  0  0  0  0  0  0  0  0  0
   35.6500   47.1800   33.3600 H   0  0  0  0  0  0  0  0  0  0  0  0
   37.3100   44.0200   35.7400 H   0  0  0  0  0  0  0  0  0  0  0  0
   45.1800   39.9300   35.0500 H   0  0  0  0  0  0  0  0  0  0  0  0
   37.4600   46.8800   31.6900 H   0  0  0  0  0  0  0  0  0  0  0  0
   39.0900   43.6500   34.0500 H   0  0  0  0  0  0  0  0  0  0  0  0
   43.8400   39.7100   31.5900 H   0  0  0  0  0  0  0  0  0  0  0  0
  1  2  1  0
  1 33  1  0
  1 34  1  0
  1 35  1  0
  2  3  1  0
  3  4  2  0
  3  8  1  0
  4  5  1  0
  4 46  1  0
  5  6  2  0
  5 44  1  0
  6  7  1  0
  6 45  1  0
  7  8  2  0
  7 51  1  0
  8  9  1  0
  9 10  1  0
  9 13  1  0
  9 54  1  6
 10 11  1  0
 10 47  1  0
 10 48  1  0
 11 12  1  0
 11 42  1  0
 11 43  1  0
 12 13  1  0
 12 40  1  0
 12 41  1  0
 13 14  1  0
 14 15  2  0
 14 16  1  0
 16 17  1  0
 16 36  1  0
 16 37  1  0
 17 18  1  0
 17 32  1  0
 18 19  2  0
 18 29  1  0
 20 21  1  0
 20 29  1  0
 20 38  1  0
 20 39  1  0
 21 22  2  0
 21 27  1  0
 22 23  1  0
 22 52  1  0
 23 25  2  0
 23 49  1  0
 24 25  1  0
 24 30  1  0
 24 31  1  0
 25 26  1  0
 26 27  2  0
 26 50  1  0
 27 53  1  0
 28 29  1  0
M  END
$$$$
ligand-27
     RDKit          3D

 54 57  0  0  0  0  0  0  0  0999 V2000
   39.6655   45.3893   32.4734 C   0  0  0  0  0  0  0  0  0  0  0  0
   42.3250   41.2986   34.4671 O   0  0  0  0  0  0  0  0  0  0  0  0
   42.3974   40.8702   33.3264 C   0  0  0  0  0  0  0  0  0  0  0  0
   39.2164   44.3996   33.3692 C   0  0  0  0  0  0  0  0  0  0  0  0
   37.9687   44.5263   34.0012 C   0  0  0  0  0  0  0  0  0  0  0  0
   42.6206   39.5339   33.0392 N   0  0  0  0  0  0  0  0  0  0  0  0
   42.9430   38.4944   34.0254 C   0  0  0  0  0  0  0  0  0  0  0  0
   37.1606   45.6329   33.7551 C   0  0  0  0  0  0  0  0  0  0  0  0
   43.1733   37.1475   33.3040 C   0  0  0  0  0  0  0  0  0  0  0  0
   37.5636   46.5864   32.7910 C   0  0  0  0  0  0  0  0  0  0  0  0
   44.6797   36.8319   33.3767 C   0  0  0  0  0  0  0  0  0  0  0  0
   38.8112   46.4596   32.1589 C   0  0  0  0  0  0  0  0  0  0  0  0
   45.3615   38.0461   34.0133 C   0  0  0  0  0  0  0  0  0  0  0  0
   36.7629   47.8518   32.5932 C   0  0  1  0  0  0  0  0  0  0  0  0
   44.2587   38.7735   34.7851 C   0  0  0  0  0  0  0  0  0  0  0  0
   42.1748   41.8014   32.0435 C   0  0  0  0  0  0  0  0  0  0  0  0
   36.0327   45.8506   34.5378 N   0  0  0  0  0  0  0  0  0  0  0  0
   35.3037   47.6528   33.0284 C   0  0  0  0  0  0  0  0  0  0  0  0
   42.1535   41.3779   30.8887 O   0  0  0  0  0  0  0  0  0  0  0  0
   41.9646   43.1272   32.3261 N   0  0  0  0  0  0  0  0  0  0  0  0
   41.5810   44.1005   31.2977 C   0  0  0  0  0  0  0  0  0  0  0  0
   37.3364   48.8966   33.4219 O   0  0  0  0  0  0  0  0  0  0  0  0
   37.4220   48.5698   34.8469 C   0  0  0  0  0  0  0  0  0  0  0  0
   41.0950   45.4220   31.9224 C   0  0  0  0  0  0  0  0  0  0  0  0
   36.0042   48.2264   35.3821 C   0  0  2  0  0  0  0  0  0  0  0  0
   35.3092   47.1591   34.4803 C   0  0  2  0  0  0  0  0  0  0  0  0
   34.2660   49.1397   35.5041 H   0  0  0  0  0  0  0  0  0  0  0  0
   35.2254   49.4252   35.4200 O   0  0  0  0  0  0  0  0  0  0  0  0
   42.4661   39.2528   32.0744 H   0  0  0  0  0  0  0  0  0  0  0  0
   42.1053   38.4092   34.7322 H   0  0  0  0  0  0  0  0  0  0  0  0
   42.6197   36.3419   33.8094 H   0  0  0  0  0  0  0  0  0  0  0  0
   42.8152   37.1784   32.2684 H   0  0  0  0  0  0  0  0  0  0  0  0
   44.8508   35.9384   33.9936 H   0  0  0  0  0  0  0  0  0  0  0  0
   45.0977   36.6238   32.3780 H   0  0  0  0  0  0  0  0  0  0  0  0
   45.7577   38.7054   33.2260 H   0  0  0  0  0  0  0  0  0  0  0  0
   46.1884   37.7504   34.6712 H   0  0  0  0  0  0  0  0  0  0  0  0
   44.4760   39.8422   34.8822 H   0  0  0  0  0  0  0  0  0  0  0  0
   44.1815   38.3540   35.7906 H   0  0  0  0  0  0  0  0  0  0  0  0
   42.0704   43.4205   33.2998 H   0  0  0  0  0  0  0  0  0  0  0  0
   40.7905   43.6829   30.6601 H   0  0  0  0  0  0  0  0  0  0  0  0
   42.4596   44.3019   30.6788 H   0  0  0  0  0  0  0  0  0  0  0  0
   41.1695   46.1872   31.1393 H   0  0  0  0  0  0  0  0  0  0  0  0
   41.7935   45.7207   32.7043 H   0  0  0  0  0  0  0  0  0  0  0  0
   39.1411   47.2401   31.4722 H   0  0  0  0  0  0  0  0  0  0  0  0
   36.0482   45.3887   35.4447 H   0  0  0  0  0  0  0  0  0  0  0  0
   34.2653   47.0123   34.8127 H   0  0  0  0  0  0  0  0  0  0  0  0
   36.0978   47.8186   36.3848 H   0  0  0  0  0  0  0  0  0  0  0  0
   37.8362   49.4285   35.3928 H   0  0  0  0  0  0  0  0  0  0  0  0
   38.0961   47.7319   35.0128 H   0  0  0  0  0  0  0  0  0  0  0  0
   36.7904   48.1646   31.5402 H   0  0  0  0  0  0  0  0  0  0  0  0
   34.8199   46.9103   32.3681 H   0  0  0  0  0  0  0  0  0  0  0  0
   34.7366   48.5841   32.9280 H   0  0  0  0  0  0  0  0  0  0  0  0
   37.6628   43.7837   34.7337 H   0  0  0  0  0  0  0  0  0  0  0  0
   39.8540   43.5614   33.6288 H   0  0  0  0  0  0  0  0  0  0  0  0
  1  4  2  0
  1 12  1  0
  1 24  1  0
  2  3  2  0
  3  6  1  0
  3 16  1  0
  4  5  1  0
  4 54  1  0
  5  8  2  0
  5 53  1  0
  6  7  1  0
  6 29  1  0
  7  9  1  0
  7 15  1  0
  7 30  1  0
  8 10  1  0
  8 17  1  0
  9 11  1  0
  9 31  1  0
  9 32  1  0
 10 12  2  0
 10 14  1  0
 11 13  1  0
 11 33  1  0
 11 34  1  0
 12 44  1  0
 13 15  1  0
 13 35  1  0
 13 36  1  0
 14 18  1  0
 14 22  1  0
 14 50  1  6
 15 37  1  0
 15 38  1  0
 16 19  2  0
 16 20  1  0
 17 26  1  0
 17 45  1  0
 18 26  1  0
 18 51  1  0
 18 52  1  0
 20 21  1  0
 20 39  1  0
 21 24  1  0
 21 40  1  0
 21 41  1  0
 22 23  1  0
 23 25  1  0
 23 48  1  0
 23 49  1  0
 24 42  1  0
 24 43  1  0
 25 26  1  0
 25 28  1  0
 25 47  1  1
 26 46  1  1
 27 28  1  0
M  END
$$$$
ligand-3
     RDKit          3D

 27 29  0  0  0  0  0  0  0  0999 V2000
   39.2512   44.8430   32.1483 F   0  0  0  0  0  0  0  0  0  0  0  0
   34.9223   50.1032   36.4350 O   0  0  0  0  0  0  0  0  0  0  0  0
   36.6668   49.2152   34.1752 O   0  0  0  0  0  0  0  0  0  0  0  0
   35.3731   46.4221   35.7874 N   0  0  0  0  0  0  0  0  0  0  0  0
   36.9502   49.0121   35.5980 C   0  0  0  0  0  0  0  0  0  0  0  0
   37.9774   44.4035   34.1000 C   0  0  0  0  0  0  0  0  0  0  0  0
   36.9926   44.8088   35.0188 C   0  0  0  0  0  0  0  0  0  0  0  0
   37.6053   46.4304   32.8130 C   0  0  0  0  0  0  0  0  0  0  0  0
   34.5050   48.1110   34.2184 C   0  0  0  0  0  0  0  0  0  0  0  0
   38.2838   45.2189   33.0084 C   0  0  0  0  0  0  0  0  0  0  0  0
   35.6074   48.8483   36.3744 C   0  0  2  0  0  0  0  0  0  0  0  0
   35.8894   48.1598   33.5427 C   0  0  2  0  0  0  0  0  0  0  0  0
   34.7261   47.7592   35.6987 C   0  0  2  0  0  0  0  0  0  0  0  0
   36.3090   46.0102   34.8319 C   0  0  0  0  0  0  0  0  0  0  0  0
   36.6070   46.8269   33.7133 C   0  0  0  0  0  0  0  0  0  0  0  0
   34.0069   49.9196   36.7802 H   0  0  0  0  0  0  0  0  0  0  0  0
   35.6056   46.1143   36.7322 H   0  0  0  0  0  0  0  0  0  0  0  0
   37.5025   49.8751   35.9887 H   0  0  0  0  0  0  0  0  0  0  0  0
   37.5790   48.1253   35.7340 H   0  0  0  0  0  0  0  0  0  0  0  0
   38.5004   43.4619   34.2371 H   0  0  0  0  0  0  0  0  0  0  0  0
   36.7626   44.1860   35.8797 H   0  0  0  0  0  0  0  0  0  0  0  0
   37.8530   47.0520   31.9613 H   0  0  0  0  0  0  0  0  0  0  0  0
   33.8752   47.3647   33.7309 H   0  0  0  0  0  0  0  0  0  0  0  0
   34.0008   49.0808   34.1137 H   0  0  0  0  0  0  0  0  0  0  0  0
   35.8424   48.5282   37.3995 H   0  0  0  0  0  0  0  0  0  0  0  0
   35.7708   48.3750   32.4767 H   0  0  0  0  0  0  0  0  0  0  0  0
   33.7478   47.7147   36.2031 H   0  0  0  0  0  0  0  0  0  0  0  0
  1 10  1  0
  2 11  1  0
  2 16  1  0
  3  5  1  0
  3 12  1  0
  4 13  1  0
  4 14  1  0
  4 17  1  0
  5 11  1  0
  5 18  1  0
  5 19  1  0
  6  7  1  0
  6 10  2  0
  6 20  1  0
  7 14  2  0
  7 21  1  0
  8 10  1  0
  8 15  2  0
  8 22  1  0
  9 12  1  0
  9 13  1  0
  9 23  1  0
  9 24  1  0
 11 13  1  0
 11 25  1  1
 12 15  1  0
 12 26  1  6
 13 27  1  1
 14 15  1  0
M  END
$$$$
ligand-39
     RDKit          3D

 58 63  0  0  0  0  0  0  0  0999 V2000
   39.5371   45.2558   32.1049 C   0  0  0  0  0  0  0  0  0  0  0  0
   38.4723   45.5896   33.1285 C   0  0  0  0  0  0  0  0  0  0  0  0
   40.6542   44.4383   32.6212 N   0  0  0  0  0  0  0  0  0  0  0  0
   41.1512   43.5199   30.6270 O   0  0  0  0  0  0  0  0  0  0  0  0
   38.1800   44.7288   34.2020 C   0  0  0  0  0  0  0  0  0  0  0  0
   41.4127   43.6258   31.8116 C   0  0  0  0  0  0  0  0  0  0  0  0
   37.1768   45.0624   35.1267 C   0  0  0  0  0  0  0  0  0  0  0  0
   42.6183   42.9373   32.4697 C   0  0  0  0  0  0  0  0  0  0  0  0
   36.4459   46.2470   34.9774 C   0  0  0  0  0  0  0  0  0  0  0  0
   36.6885   47.0981   33.8831 C   0  0  0  0  0  0  0  0  0  0  0  0
   42.4473   41.4580   32.6237 N   0  0  0  0  0  0  0  0  0  0  0  0
   37.7115   46.7643   32.9688 C   0  0  0  0  0  0  0  0  0  0  0  0
   42.8076   40.5480   31.6675 C   0  0  0  0  0  0  0  0  0  0  0  0
   43.1177   40.8289   30.5229 O   0  0  0  0  0  0  0  0  0  0  0  0
   35.8782   48.3831   33.7327 C   0  0  1  0  0  0  0  0  0  0  0  0
   42.7299   39.1271   32.2532 C   0  0  1  0  0  0  0  0  0  0  0  0
   44.0628   38.3391   32.4230 C   0  0  1  0  0  0  0  0  0  0  0  0
   35.5120   46.5901   35.9532 N   0  0  0  0  0  0  0  0  0  0  0  0
   45.1791   39.2614   32.9932 C   0  0  0  0  0  0  0  0  0  0  0  0
   34.5159   48.2393   34.4305 C   0  0  0  0  0  0  0  0  0  0  0  0
   44.7367   39.5006   34.4568 C   0  0  0  0  0  0  0  0  0  0  0  0
   43.4203   38.6879   34.5537 C   0  0  2  0  0  0  0  0  0  0  0  0
   36.5744   49.4877   34.3665 O   0  0  0  0  0  0  0  0  0  0  0  0
   36.9107   49.2926   35.7717 C   0  0  0  0  0  0  0  0  0  0  0  0
   43.7380   37.4881   33.6561 C   0  0  0  0  0  0  0  0  0  0  0  0
   35.6156   49.0081   36.5902 C   0  0  2  0  0  0  0  0  0  0  0  0
   42.2776   39.3664   33.7166 C   0  0  1  0  0  0  0  0  0  0  0  0
   42.1644   40.8768   33.8280 C   0  0  0  0  0  0  0  0  0  0  0  0
   34.7800   47.8744   35.9041 C   0  0  2  0  0  0  0  0  0  0  0  0
   41.8617   41.4963   34.8346 O   0  0  0  0  0  0  0  0  0  0  0  0
   34.8400   50.2122   36.7403 O   0  0  0  0  0  0  0  0  0  0  0  0
   42.7753   43.4042   33.4434 H   0  0  0  0  0  0  0  0  0  0  0  0
   43.4996   43.1437   31.8543 H   0  0  0  0  0  0  0  0  0  0  0  0
   33.9059   49.9372   36.8846 H   0  0  0  0  0  0  0  0  0  0  0  0
   40.9493   44.5544   33.5864 H   0  0  0  0  0  0  0  0  0  0  0  0
   35.7649   46.2465   36.8867 H   0  0  0  0  0  0  0  0  0  0  0  0
   37.3994   50.1889   36.1716 H   0  0  0  0  0  0  0  0  0  0  0  0
   37.6140   48.4583   35.8913 H   0  0  0  0  0  0  0  0  0  0  0  0
   39.0576   44.7305   31.2659 H   0  0  0  0  0  0  0  0  0  0  0  0
   39.9492   46.1944   31.6935 H   0  0  0  0  0  0  0  0  0  0  0  0
   36.9694   44.4017   35.9620 H   0  0  0  0  0  0  0  0  0  0  0  0
   38.7229   43.7954   34.3088 H   0  0  0  0  0  0  0  0  0  0  0  0
   46.1466   38.7360   32.9677 H   0  0  0  0  0  0  0  0  0  0  0  0
   45.2936   40.1921   32.4270 H   0  0  0  0  0  0  0  0  0  0  0  0
   44.6093   40.5709   34.6771 H   0  0  0  0  0  0  0  0  0  0  0  0
   45.4834   39.1048   35.1481 H   0  0  0  0  0  0  0  0  0  0  0  0
   33.9192   47.4638   33.9491 H   0  0  0  0  0  0  0  0  0  0  0  0
   33.9525   49.1727   34.3534 H   0  0  0  0  0  0  0  0  0  0  0  0
   37.9089   47.4351   32.1333 H   0  0  0  0  0  0  0  0  0  0  0  0
   44.5989   36.9024   34.0188 H   0  0  0  0  0  0  0  0  0  0  0  0
   42.8863   36.8133   33.5108 H   0  0  0  0  0  0  0  0  0  0  0  0
   35.9074   48.6541   37.5943 H   0  0  0  0  0  0  0  0  0  0  0  0
   35.7168   48.5965   32.6604 H   0  0  0  0  0  0  0  0  0  0  0  0
   33.8208   47.7587   36.4284 H   0  0  0  0  0  0  0  0  0  0  0  0
   44.3639   37.7694   31.5365 H   0  0  0  0  0  0  0  0  0  0  0  0
   43.1422   38.4372   35.5788 H   0  0  0  0  0  0  0  0  0  0  0  0
   41.9854   38.5426   31.6998 H   0  0  0  0  0  0  0  0  0  0  0  0
   41.3015   38.9015   33.9198 H   0  0  0  0  0  0  0  0  0  0  0  0
  1  2  1  0
  1  3  1  0
  1 39  1  0
  1 40  1  0
  2  5  2  0
  2 12  1  0
  3  6  1  0
  3 35  1  0
  4  6  2  0
  5  7  1  0
  5 42  1  0
  6  8  1  0
  7  9  2  0
  7 41  1  0
  8 11  1  0
  8 32  1  0
  8 33  1  0
  9 10  1  0
  9 18  1  0
 10 12  2  0
 10 15  1  0
 11 13  1  0
 11 28  1  0
 12 49  1  0
 13 14  2  0
 13 16  1  0
 15 20  1  0
 15 23  1  0
 15 53  1  6
 16 17  1  0
 16 27  1  0
 16 57  1  6
 17 19  1  0
 17 25  1  0
 17 55  1  6
 18 29  1  0
 18 36  1  0
 19 21  1  0
 19 43  1  0
 19 44  1  0
 20 29  1  0
 20 47  1  0
 20 48  1  0
 21 22  1  0
 21 45  1  0
 21 46  1  0
 22 25  1  0
 22 27  1  0
 22 56  1  1
 23 24  1  0
 24 26  1  0
 24 37  1  0
 24 38  1  0
 25 50  1  0
 25 51  1  0
 26 29  1  0
 26 31  1  0
 26 52  1  1
 27 28  1  0
 27 58  1  6
 28 30  2  0
 29 54  1  1
 31 34  1  0
M  END
$$$$
ligand-4
     RDKit          3D

 34 36  0  0  0  0  0  0  0  0999 V2000
   35.2071   51.0139   36.3149 O   0  0  0  0  0  0  0  0  0  0  0  0
   38.1020   43.9793   34.3019 O   0  0  0  0  0  0  0  0  0  0  0  0
   38.3958   45.0742   32.2670 O   0  0  0  0  0  0  0  0  0  0  0  0
   35.0570   47.3523   36.0189 N   0  0  0  0  0  0  0  0  0  0  0  0
   35.5923   49.8889   34.3564 N   0  0  0  0  0  0  0  0  0  0  0  0
   38.0387   50.1233   34.8186 C   0  0  0  0  0  0  0  0  0  0  0  0
   38.8541   43.9279   33.0495 C   0  0  0  0  0  0  0  0  0  0  0  0
   33.6907   47.8157   35.8024 C   0  0  0  0  0  0  0  0  0  0  0  0
   36.8181   50.6624   34.0529 C   0  0  0  0  0  0  0  0  0  0  0  0
   35.2777   48.8034   33.4008 C   0  0  0  0  0  0  0  0  0  0  0  0
   33.5766   49.3559   35.7605 C   0  0  0  0  0  0  0  0  0  0  0  0
   36.5184   45.6116   35.2552 C   0  0  0  0  0  0  0  0  0  0  0  0
   36.8175   46.9133   32.7489 C   0  0  0  0  0  0  0  0  0  0  0  0
   34.8718   50.1395   35.5177 C   0  0  0  0  0  0  0  0  0  0  0  0
   37.3465   45.1017   34.2467 C   0  0  0  0  0  0  0  0  0  0  0  0
   37.5004   45.7429   33.0537 C   0  0  0  0  0  0  0  0  0  0  0  0
   35.8351   46.8224   35.0001 C   0  0  0  0  0  0  0  0  0  0  0  0
   35.9698   47.4732   33.7368 C   0  0  0  0  0  0  0  0  0  0  0  0
   35.3469   47.1479   36.9832 H   0  0  0  0  0  0  0  0  0  0  0  0
   38.9024   50.7993   34.6923 H   0  0  0  0  0  0  0  0  0  0  0  0
   37.8279   50.0415   35.8972 H   0  0  0  0  0  0  0  0  0  0  0  0
   38.3189   49.1397   34.4481 H   0  0  0  0  0  0  0  0  0  0  0  0
   38.6460   42.9949   32.5139 H   0  0  0  0  0  0  0  0  0  0  0  0
   39.9224   44.0255   33.2592 H   0  0  0  0  0  0  0  0  0  0  0  0
   33.0416   47.4436   36.5987 H   0  0  0  0  0  0  0  0  0  0  0  0
   33.2984   47.4006   34.8614 H   0  0  0  0  0  0  0  0  0  0  0  0
   36.6592   51.7148   34.3140 H   0  0  0  0  0  0  0  0  0  0  0  0
   37.0285   50.6242   32.9751 H   0  0  0  0  0  0  0  0  0  0  0  0
   35.5886   49.1154   32.4016 H   0  0  0  0  0  0  0  0  0  0  0  0
   34.1978   48.6568   33.3313 H   0  0  0  0  0  0  0  0  0  0  0  0
   33.1884   49.7040   36.7244 H   0  0  0  0  0  0  0  0  0  0  0  0
   32.8449   49.6434   35.0114 H   0  0  0  0  0  0  0  0  0  0  0  0
   36.4373   45.0985   36.2080 H   0  0  0  0  0  0  0  0  0  0  0  0
   36.9586   47.3861   31.7869 H   0  0  0  0  0  0  0  0  0  0  0  0
  1 14  2  0
  2  7  1  0
  2 15  1  0
  3  7  1  0
  3 16  1  0
  4  8  1  0
  4 17  1  0
  4 19  1  0
  5  9  1  0
  5 10  1  0
  5 14  1  0
  6  9  1  0
  6 20  1  0
  6 21  1  0
  6 22  1  0
  7 23  1  0
  7 24  1  0
  8 11  1  0
  8 25  1  0
  8 26  1  0
  9 27  1  0
  9 28  1  0
 10 18  1  0
 10 29  1  0
 10 30  1  0
 11 14  1  0
 11 31  1  0
 11 32  1  0
 12 15  2  0
 12 17  1  0
 12 33  1  0
 13 16  2  0
 13 18  1  0
 13 34  1  0
 15 16  1  0
 17 18  2  0
M  END
$$$$
ligand-40
     RDKit          3D

 58 63  0  0  0  0  0  0  0  0999 V2000
   40.9007   42.5948   31.7569 O   0  0  0  0  0  0  0  0  0  0  0  0
   44.8874   41.8142   31.3554 O   0  0  0  0  0  0  0  0  0  0  0  0
   42.0443   41.6403   34.8876 O   0  0  0  0  0  0  0  0  0  0  0  0
   34.5390   50.0679   36.3442 O   0  0  0  0  0  0  0  0  0  0  0  0
   36.4919   49.3597   34.1510 O   0  0  0  0  0  0  0  0  0  0  0  0
   40.8808   44.7220   32.5641 N   0  0  0  0  0  0  0  0  0  0  0  0
   35.5096   46.4769   35.7814 N   0  0  0  0  0  0  0  0  0  0  0  0
   43.3728   42.0027   33.0656 N   0  0  0  0  0  0  0  0  0  0  0  0
   36.7323   49.2439   35.5858 C   0  0  0  0  0  0  0  0  0  0  0  0
   39.5937   45.1280   31.9791 C   0  0  0  0  0  0  0  0  0  0  0  0
   42.9424   43.4050   32.8016 C   0  0  0  0  0  0  0  0  0  0  0  0
   37.2707   45.0042   35.0320 C   0  0  0  0  0  0  0  0  0  0  0  0
   38.2884   44.6744   34.1214 C   0  0  0  0  0  0  0  0  0  0  0  0
   44.8013   37.5387   32.9692 C   0  0  0  0  0  0  0  0  0  0  0  0
   43.7378   37.4480   34.0974 C   0  0  0  0  0  0  0  0  0  0  0  0
   34.4771   48.0257   34.1654 C   0  0  0  0  0  0  0  0  0  0  0  0
   37.7508   46.6506   32.8270 C   0  0  0  0  0  0  0  0  0  0  0  0
   42.8179   38.7270   32.3127 C   0  0  0  0  0  0  0  0  0  0  0  0
   41.4717   43.5010   32.3418 C   0  0  0  0  0  0  0  0  0  0  0  0
   44.3456   41.3723   32.3530 C   0  0  0  0  0  0  0  0  0  0  0  0
   42.9191   41.2804   34.1140 C   0  0  0  0  0  0  0  0  0  0  0  0
   35.4057   48.9153   36.3378 C   0  0  2  0  0  0  0  0  0  0  0  0
   35.8612   48.2138   33.5141 C   0  0  2  0  0  0  0  0  0  0  0  0
   34.6857   47.7098   35.6588 C   0  0  2  0  0  0  0  0  0  0  0  0
   36.4879   46.1473   34.8400 C   0  0  0  0  0  0  0  0  0  0  0  0
   38.5335   45.5075   33.0191 C   0  0  0  0  0  0  0  0  0  0  0  0
   44.3513   38.7929   32.1742 C   0  0  1  0  0  0  0  0  0  0  0  0
   42.8466   38.6916   33.8435 C   0  0  2  0  0  0  0  0  0  0  0  0
   36.7232   46.9705   33.7274 C   0  0  0  0  0  0  0  0  0  0  0  0
   44.6879   40.0489   33.0256 C   0  0  2  0  0  0  0  0  0  0  0  0
   43.6833   39.9578   34.2050 C   0  0  1  0  0  0  0  0  0  0  0  0
   33.6990   49.7988   36.7862 H   0  0  0  0  0  0  0  0  0  0  0  0
   41.4335   45.4287   33.0379 H   0  0  0  0  0  0  0  0  0  0  0  0
   35.7694   46.2127   36.7360 H   0  0  0  0  0  0  0  0  0  0  0  0
   37.1473   50.1813   35.9776 H   0  0  0  0  0  0  0  0  0  0  0  0
   37.4760   48.4610   35.7883 H   0  0  0  0  0  0  0  0  0  0  0  0
   39.1836   44.3214   31.3678 H   0  0  0  0  0  0  0  0  0  0  0  0
   39.7697   45.9898   31.3256 H   0  0  0  0  0  0  0  0  0  0  0  0
   43.5600   43.8659   32.0156 H   0  0  0  0  0  0  0  0  0  0  0  0
   43.0559   44.0115   33.7062 H   0  0  0  0  0  0  0  0  0  0  0  0
   37.0811   44.3617   35.8961 H   0  0  0  0  0  0  0  0  0  0  0  0
   38.8727   43.7721   34.2702 H   0  0  0  0  0  0  0  0  0  0  0  0
   44.7814   36.6410   32.3355 H   0  0  0  0  0  0  0  0  0  0  0  0
   45.8137   37.6543   33.3703 H   0  0  0  0  0  0  0  0  0  0  0  0
   44.1876   37.4531   35.0968 H   0  0  0  0  0  0  0  0  0  0  0  0
   43.1472   36.5201   33.9822 H   0  0  0  0  0  0  0  0  0  0  0  0
   33.9445   47.1990   33.6715 H   0  0  0  0  0  0  0  0  0  0  0  0
   33.8625   48.9181   34.0259 H   0  0  0  0  0  0  0  0  0  0  0  0
   37.9204   47.2931   31.9625 H   0  0  0  0  0  0  0  0  0  0  0  0
   42.3940   37.8099   31.8708 H   0  0  0  0  0  0  0  0  0  0  0  0
   42.3088   39.6000   31.9053 H   0  0  0  0  0  0  0  0  0  0  0  0
   35.6541   48.6309   37.3621 H   0  0  0  0  0  0  0  0  0  0  0  0
   35.7336   48.4080   32.4419 H   0  0  0  0  0  0  0  0  0  0  0  0
   33.7154   47.5511   36.1286 H   0  0  0  0  0  0  0  0  0  0  0  0
   44.7227   38.8355   31.1317 H   0  0  0  0  0  0  0  0  0  0  0  0
   41.8567   38.6529   34.3133 H   0  0  0  0  0  0  0  0  0  0  0  0
   45.7312   40.0646   33.3670 H   0  0  0  0  0  0  0  0  0  0  0  0
   44.1735   39.8829   35.1750 H   0  0  0  0  0  0  0  0  0  0  0  0
  1 19  2  0
  2 20  2  0
  3 21  2  0
  4 22  1  0
  4 32  1  0
  5  9  1  0
  5 23  1  0
  6 10  1  0
  6 19  1  0
  6 33  1  0
  7 24  1  0
  7 25  1  0
  7 34  1  0
  8 11  1  0
  8 20  1  0
  8 21  1  0
  9 22  1  0
  9 35  1  0
  9 36  1  0
 10 26  1  0
 10 37  1  0
 10 38  1  0
 11 19  1  0
 11 39  1  0
 11 40  1  0
 12 13  1  0
 12 25  2  0
 12 41  1  0
 13 26  2  0
 13 42  1  0
 14 15  1  0
 14 27  1  0
 14 43  1  0
 14 44  1  0
 15 28  1  0
 15 45  1  0
 15 46  1  0
 16 23  1  0
 16 24  1  0
 16 47  1  0
 16 48  1  0
 17 26  1  0
 17 29  2  0
 17 49  1  0
 18 27  1  0
 18 28  1  0
 18 50  1  0
 18 51  1  0
 20 30  1  0
 21 31  1  0
 22 24  1  0
 22 52  1  1
 23 29  1  0
 23 53  1  6
 24 54  1  1
 25 29  1  0
 27 30  1  0
 27 55  1  6
 28 31  1  0
 28 56  1  1
 30 31  1  0
 30 57  1  1
 31 58  1  1
M  END
$$$$
ligand-7
     RDKit          3D

 29 31  0  0  0  0  0  0  0  0999 V2000
   41.7697   43.4896   29.5208 H   0  0  0  0  0  0  0  0  0  0  0  0
   42.3526   43.6387   30.2688 O   0  0  0  0  0  0  0  0  0  0  0  0
   40.8269   42.6613   31.4160 O   0  0  0  0  0  0  0  0  0  0  0  0
   43.8335   40.1789   30.5994 O   0  0  0  0  0  0  0  0  0  0  0  0
   42.0345   41.2285   34.6487 O   0  0  0  0  0  0  0  0  0  0  0  0
   42.9074   40.9888   32.5331 N   0  0  0  0  0  0  0  0  0  0  0  0
   43.0428   42.4473   32.2125 C   0  0  0  0  0  0  0  0  0  0  0  0
   45.5907   38.8714   33.3008 C   0  0  0  0  0  0  0  0  0  0  0  0
   45.0309   39.2777   34.6811 C   0  0  0  0  0  0  0  0  0  0  0  0
   44.0966   37.1630   34.0398 C   0  0  0  0  0  0  0  0  0  0  0  0
   41.9923   42.9429   31.2144 C   0  0  0  0  0  0  0  0  0  0  0  0
   43.3541   39.9942   31.7021 C   0  0  0  0  0  0  0  0  0  0  0  0
   42.4744   40.5339   33.7471 C   0  0  0  0  0  0  0  0  0  0  0  0
   44.5226   37.8878   32.7552 C   0  0  1  0  0  0  0  0  0  0  0  0
   43.7036   38.4571   34.7711 C   0  0  2  0  0  0  0  0  0  0  0  0
   43.2034   38.6464   32.4023 C   0  0  1  0  0  0  0  0  0  0  0  0
   42.6230   39.0129   33.8023 C   0  0  2  0  0  0  0  0  0  0  0  0
   44.0312   42.6297   31.7782 H   0  0  0  0  0  0  0  0  0  0  0  0
   42.9421   43.0396   33.1199 H   0  0  0  0  0  0  0  0  0  0  0  0
   46.5554   38.3549   33.4175 H   0  0  0  0  0  0  0  0  0  0  0  0
   45.7474   39.7292   32.6417 H   0  0  0  0  0  0  0  0  0  0  0  0
   44.8670   40.3590   34.7665 H   0  0  0  0  0  0  0  0  0  0  0  0
   45.7159   38.9844   35.4829 H   0  0  0  0  0  0  0  0  0  0  0  0
   44.9251   36.6281   34.5243 H   0  0  0  0  0  0  0  0  0  0  0  0
   43.2542   36.4786   33.8873 H   0  0  0  0  0  0  0  0  0  0  0  0
   44.8810   37.2240   31.9622 H   0  0  0  0  0  0  0  0  0  0  0  0
   43.3557   38.3113   35.8058 H   0  0  0  0  0  0  0  0  0  0  0  0
   42.4980   38.0103   31.8419 H   0  0  0  0  0  0  0  0  0  0  0  0
   41.6470   38.5500   33.9673 H   0  0  0  0  0  0  0  0  0  0  0  0
  1  2  1  0
  2 11  1  0
  3 11  2  0
  4 12  2  0
  5 13  2  0
  6  7  1  0
  6 12  1  0
  6 13  1  0
  7 11  1  0
  7 18  1  0
  7 19  1  0
  8  9  1  0
  8 14  1  0
  8 20  1  0
  8 21  1  0
  9 15  1  0
  9 22  1  0
  9 23  1  0
 10 14  1  0
 10 15  1  0
 10 24  1  0
 10 25  1  0
 12 16  1  0
 13 17  1  0
 14 16  1  0
 14 26  1  6
 15 17  1  0
 15 27  1  1
 16 17  1  0
 16 28  1  6
 17 29  1  1
M  END
$$$$
ligand-8
     RDKit          3D

 35 36  0  0  0  0  0  0  0  0999 V2000
   41.7634   41.9066   31.0487 O   0  0  0  0  0  0  0  0  0  0  0  0
   42.1747   41.5320   34.5871 O   0  0  0  0  0  0  0  0  0  0  0  0
   39.6483   46.5224   31.7301 N   0  0  0  0  0  0  0  0  0  0  0  0
   41.6919   43.5508   32.6428 N   0  0  0  0  0  0  0  0  0  0  0  0
   42.4348   39.8981   32.9998 N   0  0  0  0  0  0  0  0  0  0  0  0
   38.5165   47.1505   32.1048 C   0  0  0  0  0  0  0  0  0  0  0  0
   41.2283   44.6588   31.7759 C   0  0  0  0  0  0  0  0  0  0  0  0
   37.6010   46.5819   33.0058 C   0  0  0  0  0  0  0  0  0  0  0  0
   37.8627   45.3125   33.5442 C   0  0  0  0  0  0  0  0  0  0  0  0
   44.3518   36.9043   33.4766 C   0  0  0  0  0  0  0  0  0  0  0  0
   45.1632   38.0912   34.0176 C   0  0  0  0  0  0  0  0  0  0  0  0
   39.0341   44.6633   33.1336 C   0  0  0  0  0  0  0  0  0  0  0  0
   42.9840   37.4946   33.0782 C   0  0  0  0  0  0  0  0  0  0  0  0
   44.1341   39.0279   34.6475 C   0  0  0  0  0  0  0  0  0  0  0  0
   41.8805   42.2403   32.2219 C   0  0  0  0  0  0  0  0  0  0  0  0
   42.1967   41.2015   33.4066 C   0  0  0  0  0  0  0  0  0  0  0  0
   39.9173   45.3035   32.2385 C   0  0  0  0  0  0  0  0  0  0  0  0
   42.7954   38.7947   33.8926 C   0  0  0  0  0  0  0  0  0  0  0  0
   41.8611   43.7266   33.6291 H   0  0  0  0  0  0  0  0  0  0  0  0
   42.2545   39.6824   32.0303 H   0  0  0  0  0  0  0  0  0  0  0  0
   38.3466   48.1318   31.6808 H   0  0  0  0  0  0  0  0  0  0  0  0
   41.1046   44.3116   30.7455 H   0  0  0  0  0  0  0  0  0  0  0  0
   42.0019   45.4313   31.7688 H   0  0  0  0  0  0  0  0  0  0  0  0
   36.7030   47.1205   33.2870 H   0  0  0  0  0  0  0  0  0  0  0  0
   37.1740   44.8481   34.2358 H   0  0  0  0  0  0  0  0  0  0  0  0
   44.2250   36.1487   34.2655 H   0  0  0  0  0  0  0  0  0  0  0  0
   44.8519   36.4410   32.6203 H   0  0  0  0  0  0  0  0  0  0  0  0
   45.6764   38.5980   33.1909 H   0  0  0  0  0  0  0  0  0  0  0  0
   45.9191   37.7736   34.7427 H   0  0  0  0  0  0  0  0  0  0  0  0
   39.2576   43.6704   33.5176 H   0  0  0  0  0  0  0  0  0  0  0  0
   42.1802   36.7790   33.2609 H   0  0  0  0  0  0  0  0  0  0  0  0
   42.9923   37.7125   32.0147 H   0  0  0  0  0  0  0  0  0  0  0  0
   44.4696   40.0737   34.6067 H   0  0  0  0  0  0  0  0  0  0  0  0
   44.0069   38.7562   35.6949 H   0  0  0  0  0  0  0  0  0  0  0  0
   41.9972   38.6549   34.6405 H   0  0  0  0  0  0  0  0  0  0  0  0
  1 15  2  0
  2 16  2  0
  3  6  2  0
  3 17  1  0
  4  7  1  0
  4 15  1  0
  4 19  1  0
  5 16  1  0
  5 18  1  0
  5 20  1  0
  6  8  1  0
  6 21  1  0
  7 17  1  0
  7 22  1  0
  7 23  1  0
  8  9  2  0
  8 24  1  0
  9 12  1  0
  9 25  1  0
 10 11  1  0
 10 13  1  0
 10 26  1  0
 10 27  1  0
 11 14  1  0
 11 28  1  0
 11 29  1  0
 12 17  2  0
 12 30  1  0
 13 18  1  0
 13 31  1  0
 13 32  1  0
 14 18  1  0
 14 33  1  0
 14 34  1  0
 15 16  1  0
 18 35  1  0
M  END
$$$$
