lig_36
     RDKit          3D

 25 27  0  0  1  0  0  0  0  0999 V2000
   68.6282  -35.7025   28.0525 C   0  0  0  0  0  0  0  0  0  0  0  0
   69.9419  -35.6584   28.5580 C   0  0  0  0  0  0  0  0  0  0  0  0
   70.8631  -34.7392   28.0209 C   0  0  0  0  0  0  0  0  0  0  0  0
   70.4626  -33.8802   26.9795 C   0  0  0  0  0  0  0  0  0  0  0  0
   69.1474  -33.9197   26.4377 C   0  0  0  0  0  0  0  0  0  0  0  0
   68.2375  -34.8436   27.0052 C   0  0  0  0  0  0  0  0  0  0  0  0
   69.0671  -32.9350   25.3890 C   0  0  0  0  0  0  0  0  0  0  0  0
   70.2930  -32.3073   25.3211 C   0  0  0  0  0  0  0  0  0  0  0  0
   71.1163  -32.8865   26.2740 N   0  0  0  0  0  0  0  0  0  0  0  0
   70.8494  -31.1910   24.5056 C   0  0  0  0  0  0  0  0  0  0  0  0
   70.1879  -30.7084   23.5581 O   0  0  0  0  0  0  0  0  0  0  0  0
   71.9808  -30.7440   24.7942 O   0  0  0  0  0  0  0  0  0  0  0  0
   67.8526  -32.6102   24.5637 C   0  0  0  0  0  0  0  0  0  0  0  0
   67.1631  -31.3155   25.0246 C   0  0  0  0  0  0  0  0  0  0  0  0
   66.5389  -31.3948   26.4247 C   0  0  0  0  0  0  0  0  0  0  0  0
   65.3908  -32.2249   26.3502 O   0  0  0  0  0  0  0  0  0  0  0  0
   64.5228  -32.2333   27.4159 C   0  0  0  0  0  0  0  0  0  0  0  0
   63.2255  -32.7265   27.1766 C   0  0  0  0  0  0  0  0  0  0  0  0
   62.2921  -32.8307   28.2204 C   0  0  0  0  0  0  0  0  0  0  0  0
   62.6489  -32.4299   29.5216 C   0  0  0  0  0  0  0  0  0  0  0  0
   63.9334  -31.8850   29.7795 C   0  0  0  0  0  0  0  0  0  0  0  0
   64.8661  -31.7930   28.7179 C   0  0  0  0  0  0  0  0  0  0  0  0
   64.2875  -31.4179   31.1907 C   0  0  0  0  0  0  0  0  0  0  0  0
   65.7568  -31.0255   31.4116 C   0  0  0  0  0  0  0  0  0  0  0  0
   61.4864  -32.6438   30.7806 Cl  0  0  0  0  0  0  0  0  0  0  0  0
  1  6  2  0
  1  2  1  0
  2  3  2  0
  3  4  1  0
  4  9  1  0
  4  5  2  0
  5  6  1  0
  5  7  1  0
  7  8  2  0
  7 13  1  0
  8  9  1  0
  8 10  1  0
 10 11  2  0
 10 12  1  0
 13 14  1  0
 14 15  1  0
 15 16  1  0
 16 17  1  0
 17 22  1  0
 17 18  2  0
 18 19  1  0
 19 20  2  0
 20 21  1  0
 20 25  1  0
 21 22  2  0
 21 23  1  0
 23 24  1  0
M  CHG  1  12  -1
M  END
