lig_27
     RDKit          3D

 22 24  0  0  1  0  0  0  0  0999 V2000
   62.6359  -32.4071   29.5489 C   0  0  0  0  0  0  0  0  0  0  0  0
   63.9230  -31.8909   29.7944 C   0  0  0  0  0  0  0  0  0  0  0  0
   64.8652  -31.8243   28.7496 C   0  0  0  0  0  0  0  0  0  0  0  0
   64.5156  -32.2517   27.4444 C   0  0  0  0  0  0  0  0  0  0  0  0
   63.2146  -32.7360   27.2032 C   0  0  0  0  0  0  0  0  0  0  0  0
   62.2824  -32.8353   28.2537 C   0  0  0  0  0  0  0  0  0  0  0  0
   65.3783  -32.2371   26.3760 O   0  0  0  0  0  0  0  0  0  0  0  0
   66.5232  -31.4038   26.4500 C   0  0  0  0  0  0  0  0  0  0  0  0
   67.1407  -31.3284   25.0459 C   0  0  0  0  0  0  0  0  0  0  0  0
   67.8184  -32.6334   24.5927 C   0  0  0  0  0  0  0  0  0  0  0  0
   69.0517  -32.9349   25.3960 C   0  0  0  0  0  0  0  0  0  0  0  0
   70.2677  -32.2915   25.2945 C   0  0  0  0  0  0  0  0  0  0  0  0
   71.1103  -32.8161   26.2621 N   0  0  0  0  0  0  0  0  0  0  0  0
   70.4838  -33.8055   26.9963 C   0  0  0  0  0  0  0  0  0  0  0  0
   69.1647  -33.8894   26.4671 C   0  0  0  0  0  0  0  0  0  0  0  0
   68.2799  -34.8194   27.0686 C   0  0  0  0  0  0  0  0  0  0  0  0
   68.6955  -35.6361   28.1399 C   0  0  0  0  0  0  0  0  0  0  0  0
   70.0127  -35.5431   28.6325 C   0  0  0  0  0  0  0  0  0  0  0  0
   70.9108  -34.6201   28.0623 C   0  0  0  0  0  0  0  0  0  0  0  0
   70.8014  -31.1976   24.4365 C   0  0  0  0  0  0  0  0  0  0  0  0
   70.1760  -30.8224   23.4184 O   0  0  0  0  0  0  0  0  0  0  0  0
   71.8825  -30.6536   24.7557 O   0  0  0  0  0  0  0  0  0  0  0  0
  1  6  2  0
  1  2  1  0
  2  3  2  0
  3  4  1  0
  4  5  2  0
  4  7  1  0
  5  6  1  0
  7  8  1  0
  8  9  1  0
  9 10  1  0
 10 11  1  0
 11 15  1  0
 11 12  2  0
 12 13  1  0
 12 20  1  0
 13 14  1  0
 14 19  1  0
 14 15  2  0
 15 16  1  0
 16 17  2  0
 17 18  1  0
 18 19  2  0
 20 21  2  0
 20 22  1  0
M  CHG  1  22  -1
M  END
