lig_48
     RDKit          3D

 25 28  0  0  1  0  0  0  0  0999 V2000
   68.6642  -35.6502   28.1042 C   0  0  0  0  0  0  0  0  0  0  0  0
   69.9647  -35.5552   28.6358 C   0  0  0  0  0  0  0  0  0  0  0  0
   70.8733  -34.6213   28.1010 C   0  0  0  0  0  0  0  0  0  0  0  0
   70.4700  -33.7962   27.0339 C   0  0  0  0  0  0  0  0  0  0  0  0
   69.1656  -33.8790   26.4687 C   0  0  0  0  0  0  0  0  0  0  0  0
   68.2721  -34.8219   27.0328 C   0  0  0  0  0  0  0  0  0  0  0  0
   69.0740  -32.9075   25.4105 C   0  0  0  0  0  0  0  0  0  0  0  0
   70.2879  -32.2552   25.3529 C   0  0  0  0  0  0  0  0  0  0  0  0
   71.1110  -32.7988   26.3263 N   0  0  0  0  0  0  0  0  0  0  0  0
   70.8406  -31.1418   24.5343 C   0  0  0  0  0  0  0  0  0  0  0  0
   71.9647  -30.6794   24.8276 O   0  0  0  0  0  0  0  0  0  0  0  0
   70.1889  -30.6693   23.5757 O   0  0  0  0  0  0  0  0  0  0  0  0
   67.8582  -32.6096   24.5740 C   0  0  0  0  0  0  0  0  0  0  0  0
   67.1408  -31.3231   25.0232 C   0  0  0  0  0  0  0  0  0  0  0  0
   66.5384  -31.4135   26.4316 C   0  0  0  0  0  0  0  0  0  0  0  0
   65.3845  -32.2343   26.3881 O   0  0  0  0  0  0  0  0  0  0  0  0
   64.5189  -32.2359   27.4616 C   0  0  0  0  0  0  0  0  0  0  0  0
   63.2300  -32.7341   27.1785 C   0  0  0  0  0  0  0  0  0  0  0  0
   62.2608  -32.8722   28.1868 C   0  0  0  0  0  0  0  0  0  0  0  0
   62.5556  -32.4600   29.4945 C   0  0  0  0  0  0  0  0  0  0  0  0
   63.8158  -31.9285   29.7815 C   0  0  0  0  0  0  0  0  0  0  0  0
   64.8449  -31.8229   28.7927 C   0  0  0  0  0  0  0  0  0  0  0  0
   66.0186  -31.3797   29.5022 C   0  0  0  0  0  0  0  0  0  0  0  0
   65.6645  -31.1234   30.7992 C   0  0  0  0  0  0  0  0  0  0  0  0
   64.3399  -31.4581   30.9650 N   0  0  0  0  0  0  0  0  0  0  0  0
  1  6  2  0
  1  2  1  0
  2  3  2  0
  3  4  1  0
  4  9  1  0
  4  5  2  0
  5  6  1  0
  5  7  1  0
  7  8  2  0
  7 13  1  0
  8  9  1  0
  8 10  1  0
 10 11  2  0
 10 12  1  0
 13 14  1  0
 14 15  1  0
 15 16  1  0
 16 17  1  0
 17 22  1  0
 17 18  2  0
 18 19  1  0
 19 20  2  0
 20 21  1  0
 21 25  1  0
 21 22  2  0
 22 23  1  0
 23 24  2  0
 24 25  1  0
M  CHG  1  12  -1
M  END
