lig_47
     RDKit          3D

 26 29  0  0  1  0  0  0  0  0999 V2000
   68.6173  -35.6753   28.0665 C   0  0  0  0  0  0  0  0  0  0  0  0
   69.9308  -35.6393   28.5742 C   0  0  0  0  0  0  0  0  0  0  0  0
   70.8633  -34.7325   28.0349 C   0  0  0  0  0  0  0  0  0  0  0  0
   70.4718  -33.8754   26.9887 C   0  0  0  0  0  0  0  0  0  0  0  0
   69.1540  -33.8989   26.4486 C   0  0  0  0  0  0  0  0  0  0  0  0
   68.2364  -34.8158   27.0162 C   0  0  0  0  0  0  0  0  0  0  0  0
   69.0800  -32.9083   25.4077 C   0  0  0  0  0  0  0  0  0  0  0  0
   70.3166  -32.3036   25.3334 C   0  0  0  0  0  0  0  0  0  0  0  0
   71.1375  -32.8914   26.2835 N   0  0  0  0  0  0  0  0  0  0  0  0
   70.8936  -31.1979   24.5191 C   0  0  0  0  0  0  0  0  0  0  0  0
   72.0301  -30.7680   24.8105 O   0  0  0  0  0  0  0  0  0  0  0  0
   70.2475  -30.7002   23.5697 O   0  0  0  0  0  0  0  0  0  0  0  0
   67.8667  -32.5438   24.6012 C   0  0  0  0  0  0  0  0  0  0  0  0
   67.2621  -31.2066   25.0613 C   0  0  0  0  0  0  0  0  0  0  0  0
   66.6211  -31.2630   26.4548 C   0  0  0  0  0  0  0  0  0  0  0  0
   65.4424  -32.0291   26.3360 O   0  0  0  0  0  0  0  0  0  0  0  0
   64.5787  -32.0928   27.4016 C   0  0  0  0  0  0  0  0  0  0  0  0
   64.8562  -31.6396   28.7133 C   0  0  0  0  0  0  0  0  0  0  0  0
   63.9251  -31.8662   29.7508 C   0  0  0  0  0  0  0  0  0  0  0  0
   62.7320  -32.5850   29.5164 C   0  0  0  0  0  0  0  0  0  0  0  0
   62.4515  -32.9884   28.1837 C   0  0  0  0  0  0  0  0  0  0  0  0
   63.3424  -32.7023   27.1421 C   0  0  0  0  0  0  0  0  0  0  0  0
   61.3231  -33.7778   27.9116 C   0  0  0  0  0  0  0  0  0  0  0  0
   60.5447  -34.2066   28.9908 C   0  0  0  0  0  0  0  0  0  0  0  0
   60.8866  -33.7684   30.2872 C   0  0  0  0  0  0  0  0  0  0  0  0
   61.9296  -32.9487   30.5417 N   0  0  0  0  0  0  0  0  0  0  0  0
  1  6  2  0
  1  2  1  0
  2  3  2  0
  3  4  1  0
  4  9  1  0
  4  5  2  0
  5  6  1  0
  5  7  1  0
  7  8  2  0
  7 13  1  0
  8  9  1  0
  8 10  1  0
 10 11  2  0
 10 12  1  0
 13 14  1  0
 14 15  1  0
 15 16  1  0
 16 17  1  0
 17 22  1  0
 17 18  2  0
 18 19  1  0
 19 20  2  0
 20 26  1  0
 20 21  1  0
 21 22  2  0
 21 23  1  0
 23 24  2  0
 24 25  1  0
 25 26  2  0
M  CHG  1  12  -1
M  END
