lig_31
     RDKit          3D

 26 28  0  0  1  0  0  0  0  0999 V2000
   68.6804  -35.6786   28.0931 C   0  0  0  0  0  0  0  0  0  0  0  0
   69.9871  -35.5802   28.6112 C   0  0  0  0  0  0  0  0  0  0  0  0
   70.8870  -34.6445   28.0638 C   0  0  0  0  0  0  0  0  0  0  0  0
   70.4722  -33.8244   26.9967 C   0  0  0  0  0  0  0  0  0  0  0  0
   69.1620  -33.9135   26.4469 C   0  0  0  0  0  0  0  0  0  0  0  0
   68.2768  -34.8562   27.0222 C   0  0  0  0  0  0  0  0  0  0  0  0
   69.0593  -32.9501   25.3835 C   0  0  0  0  0  0  0  0  0  0  0  0
   70.2728  -32.2994   25.3048 C   0  0  0  0  0  0  0  0  0  0  0  0
   71.1058  -32.8290   26.2784 N   0  0  0  0  0  0  0  0  0  0  0  0
   70.8085  -31.1911   24.4670 C   0  0  0  0  0  0  0  0  0  0  0  0
   70.1631  -30.7727   23.4786 O   0  0  0  0  0  0  0  0  0  0  0  0
   71.9059  -30.6740   24.7776 O   0  0  0  0  0  0  0  0  0  0  0  0
   67.8406  -32.6431   24.5572 C   0  0  0  0  0  0  0  0  0  0  0  0
   67.1645  -31.3319   24.9917 C   0  0  0  0  0  0  0  0  0  0  0  0
   66.5313  -31.3999   26.3863 C   0  0  0  0  0  0  0  0  0  0  0  0
   65.3924  -32.2420   26.3129 O   0  0  0  0  0  0  0  0  0  0  0  0
   64.5274  -32.2538   27.3788 C   0  0  0  0  0  0  0  0  0  0  0  0
   63.2289  -32.7521   27.1523 C   0  0  0  0  0  0  0  0  0  0  0  0
   62.2946  -32.8344   28.2009 C   0  0  0  0  0  0  0  0  0  0  0  0
   62.6468  -32.3817   29.4860 C   0  0  0  0  0  0  0  0  0  0  0  0
   63.9355  -31.8542   29.7212 C   0  0  0  0  0  0  0  0  0  0  0  0
   64.8760  -31.8084   28.6734 C   0  0  0  0  0  0  0  0  0  0  0  0
   64.3277  -31.3411   31.0907 C   0  0  0  0  0  0  0  0  0  0  0  0
   65.0460  -32.2539   31.7226 F   0  0  0  0  0  0  0  0  0  0  0  0
   63.2413  -31.0539   31.8034 F   0  0  0  0  0  0  0  0  0  0  0  0
   65.0827  -30.2541   30.9926 F   0  0  0  0  0  0  0  0  0  0  0  0
  1  6  2  0
  1  2  1  0
  2  3  2  0
  3  4  1  0
  4  9  1  0
  4  5  2  0
  5  6  1  0
  5  7  1  0
  7  8  2  0
  7 13  1  0
  8  9  1  0
  8 10  1  0
 10 11  2  0
 10 12  1  0
 13 14  1  0
 14 15  1  0
 15 16  1  0
 16 17  1  0
 17 22  1  0
 17 18  2  0
 18 19  1  0
 19 20  2  0
 20 21  1  0
 21 22  2  0
 21 23  1  0
 23 24  1  0
 23 25  1  0
 23 26  1  0
M  CHG  1  12  -1
M  END
