lig_60
     RDKit          3D

 25 27  0  0  1  0  0  0  0  0999 V2000
   68.1438  -35.6187   28.1157 C   0  0  0  0  0  0  0  0  0  0  0  0
   69.4123  -35.7788   28.6964 C   0  0  0  0  0  0  0  0  0  0  0  0
   70.4984  -35.0275   28.2122 C   0  0  0  0  0  0  0  0  0  0  0  0
   70.3058  -34.1234   27.1480 C   0  0  0  0  0  0  0  0  0  0  0  0
   69.0307  -33.9402   26.5279 C   0  0  0  0  0  0  0  0  0  0  0  0
   67.9660  -34.7091   27.0543 C   0  0  0  0  0  0  0  0  0  0  0  0
   69.0613  -32.9690   25.4409 C   0  0  0  0  0  0  0  0  0  0  0  0
   70.3359  -32.4575   25.2571 C   0  0  0  0  0  0  0  0  0  0  0  0
   71.5081  -33.1048   26.3814 S   0  0  0  0  0  0  0  0  0  0  0  0
   70.8833  -31.4540   24.2977 C   0  0  0  0  0  0  0  0  0  0  0  0
   70.1614  -31.0076   23.3747 O   0  0  0  0  0  0  0  0  0  0  0  0
   72.0610  -31.0547   24.4257 O   0  0  0  0  0  0  0  0  0  0  0  0
   67.8486  -32.5941   24.6357 C   0  0  0  0  0  0  0  0  0  0  0  0
   67.2498  -31.2546   25.0883 C   0  0  0  0  0  0  0  0  0  0  0  0
   66.5736  -31.3109   26.4722 C   0  0  0  0  0  0  0  0  0  0  0  0
   65.4133  -32.1122   26.3574 O   0  0  0  0  0  0  0  0  0  0  0  0
   64.5364  -32.1689   27.4127 C   0  0  0  0  0  0  0  0  0  0  0  0
   64.8414  -31.7244   28.7187 C   0  0  0  0  0  0  0  0  0  0  0  0
   63.8968  -31.8541   29.7556 C   0  0  0  0  0  0  0  0  0  0  0  0
   62.6419  -32.4532   29.4913 C   0  0  0  0  0  0  0  0  0  0  0  0
   62.3160  -32.8863   28.1881 C   0  0  0  0  0  0  0  0  0  0  0  0
   63.2666  -32.7208   27.1558 C   0  0  0  0  0  0  0  0  0  0  0  0
   60.9876  -33.5581   27.8839 C   0  0  0  0  0  0  0  0  0  0  0  0
   61.5011  -32.6543   30.7763 Cl  0  0  0  0  0  0  0  0  0  0  0  0
   64.2457  -31.3547   31.1459 C   0  0  0  0  0  0  0  0  0  0  0  0
  1  6  2  0
  1  2  1  0
  2  3  2  0
  3  4  1  0
  4  9  1  0
  4  5  2  0
  5  6  1  0
  5  7  1  0
  7  8  2  0
  7 13  1  0
  8  9  1  0
  8 10  1  0
 10 11  2  0
 10 12  1  0
 13 14  1  0
 14 15  1  0
 15 16  1  0
 16 17  1  0
 17 22  1  0
 17 18  2  0
 18 19  1  0
 19 20  2  0
 19 25  1  0
 20 21  1  0
 20 24  1  0
 21 22  2  0
 21 23  1  0
M  CHG  1  12  -1
M  END
