lig_33
     RDKit          3D

 23 25  0  0  1  0  0  0  0  0999 V2000
   68.7145  -35.7044   28.0770 C   0  0  0  0  0  0  0  0  0  0  0  0
   70.0287  -35.6093   28.5751 C   0  0  0  0  0  0  0  0  0  0  0  0
   70.9205  -34.6695   28.0253 C   0  0  0  0  0  0  0  0  0  0  0  0
   70.4899  -33.8368   26.9747 C   0  0  0  0  0  0  0  0  0  0  0  0
   69.1719  -33.9197   26.4423 C   0  0  0  0  0  0  0  0  0  0  0  0
   68.2940  -34.8693   27.0228 C   0  0  0  0  0  0  0  0  0  0  0  0
   69.0516  -32.9435   25.3907 C   0  0  0  0  0  0  0  0  0  0  0  0
   70.2620  -32.2915   25.3022 C   0  0  0  0  0  0  0  0  0  0  0  0
   71.1096  -32.8306   26.2597 N   0  0  0  0  0  0  0  0  0  0  0  0
   70.7820  -31.1764   24.4639 C   0  0  0  0  0  0  0  0  0  0  0  0
   71.8782  -30.6561   24.7675 O   0  0  0  0  0  0  0  0  0  0  0  0
   70.1279  -30.7602   23.4798 O   0  0  0  0  0  0  0  0  0  0  0  0
   67.8174  -32.6361   24.5919 C   0  0  0  0  0  0  0  0  0  0  0  0
   67.1495  -31.3251   25.0477 C   0  0  0  0  0  0  0  0  0  0  0  0
   66.5419  -31.3943   26.4568 C   0  0  0  0  0  0  0  0  0  0  0  0
   65.3941  -32.2183   26.3781 O   0  0  0  0  0  0  0  0  0  0  0  0
   64.5274  -32.2441   27.4406 C   0  0  0  0  0  0  0  0  0  0  0  0
   64.8668  -31.8338   28.7536 C   0  0  0  0  0  0  0  0  0  0  0  0
   63.9237  -31.9568   29.7913 C   0  0  0  0  0  0  0  0  0  0  0  0
   62.6413  -32.4690   29.5172 C   0  0  0  0  0  0  0  0  0  0  0  0
   62.2851  -32.8409   28.2101 C   0  0  0  0  0  0  0  0  0  0  0  0
   63.2316  -32.7294   27.1778 C   0  0  0  0  0  0  0  0  0  0  0  0
   61.4896  -32.6528   30.7781 Cl  0  0  0  0  0  0  0  0  0  0  0  0
  1  6  2  0
  1  2  1  0
  2  3  2  0
  3  4  1  0
  4  9  1  0
  4  5  2  0
  5  6  1  0
  5  7  1  0
  7  8  2  0
  7 13  1  0
  8  9  1  0
  8 10  1  0
 10 11  2  0
 10 12  1  0
 13 14  1  0
 14 15  1  0
 15 16  1  0
 16 17  1  0
 17 22  1  0
 17 18  2  0
 18 19  1  0
 19 20  2  0
 20 21  1  0
 20 23  1  0
 21 22  2  0
M  CHG  1  12  -1
M  END
