lig_23473
     RDKit          3D

 28 30  0  0  1  0  0  0  0  0999 V2000
   50.2351    5.7137    4.7765 C   0  0  0  0  0  0  0  0  0  0  0  0
   48.8779    5.8811    4.4376 C   0  0  0  0  0  0  0  0  0  0  0  0
   48.5195    6.6142    3.2910 C   0  0  0  0  0  0  0  0  0  0  0  0
   49.5198    7.1832    2.4757 C   0  0  0  0  0  0  0  0  0  0  0  0
   50.8790    7.0369    2.8297 C   0  0  0  0  0  0  0  0  0  0  0  0
   51.2347    6.3028    3.9784 C   0  0  0  0  0  0  0  0  0  0  0  0
   49.1442    7.9325    1.2152 C   0  0  0  0  0  0  0  0  0  0  0  0
   48.7357    9.2730    1.4821 O   0  0  0  0  0  0  0  0  0  0  0  0
   47.4698    9.7190    1.1564 C   0  0  0  0  0  0  0  0  0  0  0  0
   46.4232    8.9244    0.6278 C   0  0  0  0  0  0  0  0  0  0  0  0
   45.1781    9.5017    0.3182 C   0  0  0  0  0  0  0  0  0  0  0  0
   44.9397   10.8613    0.5928 C   0  0  0  0  0  0  0  0  0  0  0  0
   45.9529   11.6735    1.1439 C   0  0  0  0  0  0  0  0  0  0  0  0
   47.2143   11.0843    1.3880 C   0  0  0  0  0  0  0  0  0  0  0  0
   45.6996   13.0803    1.4808 C   0  0  0  0  0  0  0  0  0  0  0  0
   46.1810   13.8397    2.5175 C   0  0  0  0  0  0  0  0  0  0  0  0
   45.7402   15.1856    2.5450 C   0  0  0  0  0  0  0  0  0  0  0  0
   44.8580   15.4713    1.5348 C   0  0  0  0  0  0  0  0  0  0  0  0
   44.5984   14.0589    0.5208 S   0  0  0  0  0  0  0  0  0  0  0  0
   44.1192   16.7171    1.2151 C   0  0  0  0  0  0  0  0  0  0  0  0
   43.5383   16.8452    0.1150 O   0  0  0  0  0  0  0  0  0  0  0  0
   44.0789   17.6288    2.0750 O   0  0  0  0  0  0  0  0  0  0  0  0
   46.0789   16.0504    3.5182 O   0  0  0  0  0  0  0  0  0  0  0  0
   47.2786   16.7763    3.3370 C   0  0  0  0  0  0  0  0  0  0  0  0
   47.6789   17.4041    4.6785 C   0  0  0  0  0  0  0  0  0  0  0  0
   48.7712   18.0140    4.7183 O   0  0  0  0  0  0  0  0  0  0  0  0
   46.8795   17.2732    5.6434 O   0  0  0  0  0  0  0  0  0  0  0  0
   47.2894   13.1917    3.9184 Br  0  0  0  0  0  0  0  0  0  0  0  0
  1  6  2  0
  1  2  1  0
  2  3  2  0
  3  4  1  0
  4  5  2  0
  4  7  1  0
  5  6  1  0
  7  8  1  0
  8  9  1  0
  9 14  1  0
  9 10  2  0
 10 11  1  0
 11 12  2  0
 12 13  1  0
 13 14  2  0
 13 15  1  0
 15 19  1  0
 15 16  2  0
 16 17  1  0
 16 28  1  0
 17 18  2  0
 17 23  1  0
 18 19  1  0
 18 20  1  0
 20 21  2  0
 20 22  1  0
 23 24  1  0
 24 25  1  0
 25 26  2  0
 25 27  1  0
M  CHG  2  22  -1  27  -1
M  END
