lig_23477
     RDKit          3D

 27 29  0  0  1  0  0  0  0  0999 V2000
   45.2182    9.5131    0.3165 C   0  0  0  0  0  0  0  0  0  0  0  0
   44.9500   10.8710    0.5855 C   0  0  0  0  0  0  0  0  0  0  0  0
   45.9467   11.7021    1.1445 C   0  0  0  0  0  0  0  0  0  0  0  0
   47.2165   11.1391    1.4100 C   0  0  0  0  0  0  0  0  0  0  0  0
   47.4810    9.7720    1.1985 C   0  0  0  0  0  0  0  0  0  0  0  0
   46.4694    8.9535    0.6433 C   0  0  0  0  0  0  0  0  0  0  0  0
   48.7524    9.2978    1.5562 N   0  0  0  0  0  0  0  0  0  0  0  0
   48.9808    7.8943    1.8888 C   0  0  0  0  0  0  0  0  0  0  0  0
   50.4712    7.6635    2.1722 C   0  0  0  0  0  0  0  0  0  0  0  0
   50.7267    6.2217    2.6343 C   0  0  0  0  0  0  0  0  0  0  0  0
   49.9481    5.9333    3.7905 O   0  0  0  0  0  0  0  0  0  0  0  0
   48.5515    5.9974    3.5290 C   0  0  0  0  0  0  0  0  0  0  0  0
   48.1657    7.4302    3.1157 C   0  0  0  0  0  0  0  0  0  0  0  0
   45.6829   13.1070    1.4826 C   0  0  0  0  0  0  0  0  0  0  0  0
   46.1711   13.8632    2.5153 C   0  0  0  0  0  0  0  0  0  0  0  0
   45.7338   15.2094    2.5465 C   0  0  0  0  0  0  0  0  0  0  0  0
   44.8458   15.4911    1.5407 C   0  0  0  0  0  0  0  0  0  0  0  0
   44.5832   14.0795    0.5209 S   0  0  0  0  0  0  0  0  0  0  0  0
   44.1026   16.7376    1.2261 C   0  0  0  0  0  0  0  0  0  0  0  0
   43.5231   16.8514    0.1263 O   0  0  0  0  0  0  0  0  0  0  0  0
   44.0785   17.6601    2.0745 O   0  0  0  0  0  0  0  0  0  0  0  0
   46.0789   16.0707    3.5187 O   0  0  0  0  0  0  0  0  0  0  0  0
   47.2964   16.7595    3.3459 C   0  0  0  0  0  0  0  0  0  0  0  0
   47.6794   17.4044    4.6778 C   0  0  0  0  0  0  0  0  0  0  0  0
   48.7715   18.0166    4.7179 O   0  0  0  0  0  0  0  0  0  0  0  0
   46.8795   17.2734    5.6407 O   0  0  0  0  0  0  0  0  0  0  0  0
   47.2789   13.2120    3.9167 Br  0  0  0  0  0  0  0  0  0  0  0  0
  1  6  2  0
  1  2  1  0
  2  3  2  0
  3  4  1  0
  3 14  1  0
  4  5  2  0
  5  6  1  0
  5  7  1  0
  7  8  1  0
  8 13  1  0
  8  9  1  0
  9 10  1  0
 10 11  1  0
 11 12  1  0
 12 13  1  0
 14 18  1  0
 14 15  2  0
 15 16  1  0
 15 27  1  0
 16 17  2  0
 16 22  1  0
 17 18  1  0
 17 19  1  0
 19 20  2  0
 19 21  1  0
 22 23  1  0
 23 24  1  0
 24 25  2  0
 24 26  1  0
M  CHG  2  21  -1  26  -1
M  END
