lig_23476
     RDKit          3D

 28 30  0  0  1  0  0  0  0  0999 V2000
   45.2491    9.4994    0.2763 C   0  0  0  0  0  0  0  0  0  0  0  0
   44.9757   10.8573    0.5533 C   0  0  0  0  0  0  0  0  0  0  0  0
   45.9603   11.6888    1.1361 C   0  0  0  0  0  0  0  0  0  0  0  0
   47.2194   11.1150    1.4278 C   0  0  0  0  0  0  0  0  0  0  0  0
   47.4898    9.7502    1.2136 C   0  0  0  0  0  0  0  0  0  0  0  0
   46.5051    8.9467    0.5959 C   0  0  0  0  0  0  0  0  0  0  0  0
   48.7271    9.2602    1.6668 N   0  0  0  0  0  0  0  0  0  0  0  0
   48.9719    7.8361    1.8953 C   0  0  0  0  0  0  0  0  0  0  0  0
   50.4684    7.6237    2.2043 C   0  0  0  0  0  0  0  0  0  0  0  0
   50.8454    6.2355    2.7508 C   0  0  0  0  0  0  0  0  0  0  0  0
   50.7379    6.1476    4.2840 C   0  0  0  0  0  0  0  0  0  0  0  0
   49.3013    6.1009    4.8271 C   0  0  0  0  0  0  0  0  0  0  0  0
   48.4230    7.2902    4.4052 C   0  0  0  0  0  0  0  0  0  0  0  0
   47.9962    7.2182    2.9317 C   0  0  0  0  0  0  0  0  0  0  0  0
   45.6922   13.0948    1.4763 C   0  0  0  0  0  0  0  0  0  0  0  0
   46.1746   13.8530    2.5140 C   0  0  0  0  0  0  0  0  0  0  0  0
   45.7382   15.2022    2.5437 C   0  0  0  0  0  0  0  0  0  0  0  0
   44.8484   15.4870    1.5382 C   0  0  0  0  0  0  0  0  0  0  0  0
   44.5875   14.0727    0.5213 S   0  0  0  0  0  0  0  0  0  0  0  0
   44.1000   16.7328    1.2337 C   0  0  0  0  0  0  0  0  0  0  0  0
   43.5013   16.8572    0.1441 O   0  0  0  0  0  0  0  0  0  0  0  0
   44.0789   17.6474    2.0913 O   0  0  0  0  0  0  0  0  0  0  0  0
   46.0831   16.0655    3.5160 O   0  0  0  0  0  0  0  0  0  0  0  0
   47.3124   16.7462    3.3520 C   0  0  0  0  0  0  0  0  0  0  0  0
   47.6831   17.4052    4.6817 C   0  0  0  0  0  0  0  0  0  0  0  0
   48.7744   18.0185    4.7184 O   0  0  0  0  0  0  0  0  0  0  0  0
   46.8790   17.2852    5.6428 O   0  0  0  0  0  0  0  0  0  0  0  0
   47.2782   13.1957    3.9176 Br  0  0  0  0  0  0  0  0  0  0  0  0
  1  6  2  0
  1  2  1  0
  2  3  2  0
  3  4  1  0
  3 15  1  0
  4  5  2  0
  5  6  1  0
  5  7  1  0
  7  8  1  0
  8 14  1  0
  8  9  1  0
  9 10  1  0
 10 11  1  0
 11 12  1  0
 12 13  1  0
 13 14  1  0
 15 19  1  0
 15 16  2  0
 16 17  1  0
 16 28  1  0
 17 18  2  0
 17 23  1  0
 18 19  1  0
 18 20  1  0
 20 21  2  0
 20 22  1  0
 23 24  1  0
 24 25  1  0
 25 26  2  0
 25 27  1  0
M  CHG  2  22  -1  27  -1
M  END
