lig_23483
     RDKit          3D

 36 39  0  0  1  0  0  0  0  0999 V2000
   50.2630    1.9755    7.0479 C   0  0  0  0  0  0  0  0  0  0  0  0
   51.3153    2.8136    7.4713 C   0  0  0  0  0  0  0  0  0  0  0  0
   51.7900    3.8309    6.6193 C   0  0  0  0  0  0  0  0  0  0  0  0
   51.2106    4.0045    5.3437 C   0  0  0  0  0  0  0  0  0  0  0  0
   50.1538    3.1687    4.9197 C   0  0  0  0  0  0  0  0  0  0  0  0
   49.6789    2.1548    5.7757 C   0  0  0  0  0  0  0  0  0  0  0  0
   51.8151    5.3211    4.2797 S   0  0  0  0  0  0  0  0  0  0  0  0
   52.8060    4.7284    3.3692 O   0  0  0  0  0  0  0  0  0  0  0  0
   52.1863    6.4713    5.1183 O   0  0  0  0  0  0  0  0  0  0  0  0
   50.4115    5.7595    3.3473 N   0  0  0  0  0  0  0  0  0  0  0  0
   50.4493    5.8219    1.8715 C   0  0  0  0  0  0  0  0  0  0  0  0
   50.2905    7.2727    1.3775 C   0  0  0  0  0  0  0  0  0  0  0  0
   49.0051    7.8978    1.9393 C   0  0  0  0  0  0  0  0  0  0  0  0
   49.0682    7.8496    3.4765 C   0  0  0  0  0  0  0  0  0  0  0  0
   49.2549    6.4109    3.9913 C   0  0  0  0  0  0  0  0  0  0  0  0
   48.8208    9.2732    1.4728 N   0  0  0  0  0  0  0  0  0  0  0  0
   47.5386    9.7635    1.1607 C   0  0  0  0  0  0  0  0  0  0  0  0
   46.5163    8.9605    0.6082 C   0  0  0  0  0  0  0  0  0  0  0  0
   45.2561    9.5180    0.3174 C   0  0  0  0  0  0  0  0  0  0  0  0
   44.9959   10.8741    0.5942 C   0  0  0  0  0  0  0  0  0  0  0  0
   45.9994   11.7030    1.1403 C   0  0  0  0  0  0  0  0  0  0  0  0
   47.2716   11.1297    1.3929 C   0  0  0  0  0  0  0  0  0  0  0  0
   45.7216   13.1062    1.4740 C   0  0  0  0  0  0  0  0  0  0  0  0
   46.1855   13.8647    2.5159 C   0  0  0  0  0  0  0  0  0  0  0  0
   45.7400   15.2101    2.5442 C   0  0  0  0  0  0  0  0  0  0  0  0
   44.8596   15.4909    1.5304 C   0  0  0  0  0  0  0  0  0  0  0  0
   44.6166   14.0765    0.5111 S   0  0  0  0  0  0  0  0  0  0  0  0
   44.1091   16.7308    1.2178 C   0  0  0  0  0  0  0  0  0  0  0  0
   43.5273   16.8494    0.1194 O   0  0  0  0  0  0  0  0  0  0  0  0
   44.0760   17.6472    2.0738 O   0  0  0  0  0  0  0  0  0  0  0  0
   46.0787   16.0733    3.5177 O   0  0  0  0  0  0  0  0  0  0  0  0
   47.3046   16.7549    3.3518 C   0  0  0  0  0  0  0  0  0  0  0  0
   47.6831   17.3998    4.6854 C   0  0  0  0  0  0  0  0  0  0  0  0
   48.7748   18.0104    4.7185 O   0  0  0  0  0  0  0  0  0  0  0  0
   46.8823   17.2733    5.6487 O   0  0  0  0  0  0  0  0  0  0  0  0
   47.2872   13.2093    3.9183 Br  0  0  0  0  0  0  0  0  0  0  0  0
  1  6  2  0
  1  2  1  0
  2  3  2  0
  3  4  1  0
  4  5  2  0
  4  7  1  0
  5  6  1  0
  7  8  2  0
  7  9  2  0
  7 10  1  0
 10 15  1  0
 10 11  1  0
 11 12  1  0
 12 13  1  0
 13 14  1  0
 13 16  1  0
 14 15  1  0
 16 17  1  0
 17 22  1  0
 17 18  2  0
 18 19  1  0
 19 20  2  0
 20 21  1  0
 21 22  2  0
 21 23  1  0
 23 27  1  0
 23 24  2  0
 24 25  1  0
 24 36  1  0
 25 26  2  0
 25 31  1  0
 26 27  1  0
 26 28  1  0
 28 29  2  0
 28 30  1  0
 31 32  1  0
 32 33  1  0
 33 34  2  0
 33 35  1  0
M  CHG  2  30  -1  35  -1
M  END
