lig_20667_2qbp
     RDKit          3D

 37 40  0  0  1  0  0  0  0  0999 V2000
   52.6465    0.7759    7.0761 C   0  0  0  0  0  0  0  0  0  0  0  0
   53.7141    1.2784    6.3101 C   0  0  0  0  0  0  0  0  0  0  0  0
   53.4703    2.2214    5.2934 C   0  0  0  0  0  0  0  0  0  0  0  0
   52.1490    2.6492    5.0326 C   0  0  0  0  0  0  0  0  0  0  0  0
   51.0819    2.1286    5.7928 C   0  0  0  0  0  0  0  0  0  0  0  0
   51.3308    1.1921    6.8136 C   0  0  0  0  0  0  0  0  0  0  0  0
   51.8650    3.6566    3.9380 C   0  0  0  0  0  0  0  0  0  0  0  0
   51.7083    5.3490    4.6509 S   0  0  0  0  0  0  0  0  0  0  0  0
   53.0317    5.9936    4.6131 O   0  0  0  0  0  0  0  0  0  0  0  0
   50.9751    5.2738    5.9196 O   0  0  0  0  0  0  0  0  0  0  0  0
   50.6913    6.1520    3.5025 N   0  0  0  0  0  0  0  0  0  0  0  0
   51.1923    6.4402    2.1542 C   0  0  0  0  0  0  0  0  0  0  0  0
   50.6804    7.8106    1.7007 C   0  0  0  0  0  0  0  0  0  0  0  0
   49.1470    7.9250    1.7827 C   0  0  0  0  0  0  0  0  0  0  0  0
   48.6744    7.5370    3.1984 C   0  0  0  0  0  0  0  0  0  0  0  0
   49.2238    6.1699    3.6403 C   0  0  0  0  0  0  0  0  0  0  0  0
   48.8059    9.3033    1.4783 N   0  0  0  0  0  0  0  0  0  0  0  0
   47.5170    9.7558    1.1610 C   0  0  0  0  0  0  0  0  0  0  0  0
   46.5062    8.9363    0.6192 C   0  0  0  0  0  0  0  0  0  0  0  0
   45.2454    9.4923    0.3186 C   0  0  0  0  0  0  0  0  0  0  0  0
   44.9760   10.8480    0.5990 C   0  0  0  0  0  0  0  0  0  0  0  0
   45.9755   11.6852    1.1406 C   0  0  0  0  0  0  0  0  0  0  0  0
   47.2470   11.1203    1.3871 C   0  0  0  0  0  0  0  0  0  0  0  0
   45.7069   13.0906    1.4751 C   0  0  0  0  0  0  0  0  0  0  0  0
   46.1789   13.8477    2.5178 C   0  0  0  0  0  0  0  0  0  0  0  0
   45.7363   15.1937    2.5484 C   0  0  0  0  0  0  0  0  0  0  0  0
   44.8572   15.4741    1.5335 C   0  0  0  0  0  0  0  0  0  0  0  0
   44.6105   14.0648    0.5100 S   0  0  0  0  0  0  0  0  0  0  0  0
   44.1173   16.7162    1.2150 C   0  0  0  0  0  0  0  0  0  0  0  0
   43.5457   16.8402    0.1114 O   0  0  0  0  0  0  0  0  0  0  0  0
   44.0788   17.6300    2.0742 O   0  0  0  0  0  0  0  0  0  0  0  0
   46.0789   16.0630    3.5183 O   0  0  0  0  0  0  0  0  0  0  0  0
   47.3102   16.7393    3.3575 C   0  0  0  0  0  0  0  0  0  0  0  0
   47.6949   17.3924    4.6864 C   0  0  0  0  0  0  0  0  0  0  0  0
   48.7861   18.0073    4.7147 O   0  0  0  0  0  0  0  0  0  0  0  0
   46.9029   17.2742    5.6560 O   0  0  0  0  0  0  0  0  0  0  0  0
   47.2806   13.1913    3.9157 Br  0  0  0  0  0  0  0  0  0  0  0  0
  1  6  2  0
  1  2  1  0
  2  3  2  0
  3  4  1  0
  4  5  2  0
  4  7  1  0
  5  6  1  0
  7  8  1  0
  8  9  2  0
  8 10  2  0
  8 11  1  0
 11 16  1  0
 11 12  1  0
 12 13  1  0
 13 14  1  0
 14 15  1  0
 14 17  1  0
 15 16  1  0
 17 18  1  0
 18 23  1  0
 18 19  2  0
 19 20  1  0
 20 21  2  0
 21 22  1  0
 22 23  2  0
 22 24  1  0
 24 28  1  0
 24 25  2  0
 25 26  1  0
 25 37  1  0
 26 27  2  0
 26 32  1  0
 27 28  1  0
 27 29  1  0
 29 30  2  0
 29 31  1  0
 32 33  1  0
 33 34  1  0
 34 35  2  0
 34 36  1  0
M  CHG  2  31  -1  36  -1
M  END
