lig_50
     RDKit          3D

 26 28  0  0  1  0  0  0  0  0999 V2000
   70.6540  -35.4105   28.5450 C   0  0  0  0  0  0  0  0  0  0  0  0
   71.4487  -34.5709   27.7432 C   0  0  0  0  0  0  0  0  0  0  0  0
   70.8394  -33.7744   26.7586 C   0  0  0  0  0  0  0  0  0  0  0  0
   69.4330  -33.7950   26.5231 C   0  0  0  0  0  0  0  0  0  0  0  0
   68.6660  -34.6193   27.3788 C   0  0  0  0  0  0  0  0  0  0  0  0
   69.2605  -35.4183   28.3770 C   0  0  0  0  0  0  0  0  0  0  0  0
   66.9659  -34.6049   27.2198 Cl  0  0  0  0  0  0  0  0  0  0  0  0
   69.1447  -32.9091   25.4139 C   0  0  0  0  0  0  0  0  0  0  0  0
   70.3539  -32.3451   25.0542 C   0  0  0  0  0  0  0  0  0  0  0  0
   71.3475  -32.8622   25.8620 N   0  0  0  0  0  0  0  0  0  0  0  0
   70.7750  -31.3341   24.0531 C   0  0  0  0  0  0  0  0  0  0  0  0
   71.9337  -30.8618   24.1140 O   0  0  0  0  0  0  0  0  0  0  0  0
   69.9708  -30.9291   23.1914 O   0  0  0  0  0  0  0  0  0  0  0  0
   67.8398  -32.5915   24.7350 C   0  0  0  0  0  0  0  0  0  0  0  0
   67.2864  -31.2144   25.1389 C   0  0  0  0  0  0  0  0  0  0  0  0
   66.5772  -31.2324   26.4947 C   0  0  0  0  0  0  0  0  0  0  0  0
   65.3951  -32.0055   26.3511 O   0  0  0  0  0  0  0  0  0  0  0  0
   64.5425  -32.1121   27.4237 C   0  0  0  0  0  0  0  0  0  0  0  0
   64.8626  -31.7114   28.7422 C   0  0  0  0  0  0  0  0  0  0  0  0
   63.9187  -31.8653   29.7797 C   0  0  0  0  0  0  0  0  0  0  0  0
   62.6593  -32.4517   29.5103 C   0  0  0  0  0  0  0  0  0  0  0  0
   62.3378  -32.8645   28.1975 C   0  0  0  0  0  0  0  0  0  0  0  0
   63.2747  -32.6672   27.1661 C   0  0  0  0  0  0  0  0  0  0  0  0
   61.0205  -33.5466   27.8879 C   0  0  0  0  0  0  0  0  0  0  0  0
   61.5069  -32.6700   30.7779 Cl  0  0  0  0  0  0  0  0  0  0  0  0
   64.2649  -31.3976   31.1771 C   0  0  0  0  0  0  0  0  0  0  0  0
  1  6  2  0
  1  2  1  0
  2  3  2  0
  3 10  1  0
  3  4  1  0
  4  5  2  0
  4  8  1  0
  5  6  1  0
  5  7  1  0
  8  9  2  0
  8 14  1  0
  9 10  1  0
  9 11  1  0
 11 12  2  0
 11 13  1  0
 14 15  1  0
 15 16  1  0
 16 17  1  0
 17 18  1  0
 18 23  1  0
 18 19  2  0
 19 20  1  0
 20 21  2  0
 20 26  1  0
 21 22  1  0
 21 25  1  0
 22 23  2  0
 22 24  1  0
M  CHG  1  13  -1
M  END
