lig_49
     RDKit          3D

 25 27  0  0  1  0  0  0  0  0999 V2000
   70.2909  -35.4358   28.7007 C   0  0  0  0  0  0  0  0  0  0  0  0
   71.1741  -34.6273   27.9590 C   0  0  0  0  0  0  0  0  0  0  0  0
   70.6740  -33.8213   26.9140 C   0  0  0  0  0  0  0  0  0  0  0  0
   69.2938  -33.7929   26.5624 C   0  0  0  0  0  0  0  0  0  0  0  0
   68.4318  -34.5898   27.3556 C   0  0  0  0  0  0  0  0  0  0  0  0
   68.9177  -35.4085   28.3928 C   0  0  0  0  0  0  0  0  0  0  0  0
   66.7441  -34.5446   27.0851 Cl  0  0  0  0  0  0  0  0  0  0  0  0
   69.1312  -32.8922   25.4323 C   0  0  0  0  0  0  0  0  0  0  0  0
   70.3871  -32.3948   25.1461 C   0  0  0  0  0  0  0  0  0  0  0  0
   71.2858  -32.9459   26.0448 N   0  0  0  0  0  0  0  0  0  0  0  0
   70.9391  -31.4316   24.1529 C   0  0  0  0  0  0  0  0  0  0  0  0
   70.2287  -30.9561   23.2314 O   0  0  0  0  0  0  0  0  0  0  0  0
   72.1390  -31.0921   24.2665 O   0  0  0  0  0  0  0  0  0  0  0  0
   67.8761  -32.5450   24.6822 C   0  0  0  0  0  0  0  0  0  0  0  0
   67.2774  -31.2025   25.1223 C   0  0  0  0  0  0  0  0  0  0  0  0
   66.5744  -31.2399   26.4886 C   0  0  0  0  0  0  0  0  0  0  0  0
   65.3824  -32.0025   26.3489 O   0  0  0  0  0  0  0  0  0  0  0  0
   64.5350  -32.0984   27.4273 C   0  0  0  0  0  0  0  0  0  0  0  0
   63.2684  -32.6660   27.1796 C   0  0  0  0  0  0  0  0  0  0  0  0
   62.3366  -32.8214   28.2221 C   0  0  0  0  0  0  0  0  0  0  0  0
   62.6726  -32.4239   29.5275 C   0  0  0  0  0  0  0  0  0  0  0  0
   63.9391  -31.8540   29.7990 C   0  0  0  0  0  0  0  0  0  0  0  0
   64.8698  -31.6968   28.7466 C   0  0  0  0  0  0  0  0  0  0  0  0
   64.3187  -31.3959   31.1982 C   0  0  0  0  0  0  0  0  0  0  0  0
   61.5119  -32.6528   30.7780 Cl  0  0  0  0  0  0  0  0  0  0  0  0
  1  6  2  0
  1  2  1  0
  2  3  2  0
  3 10  1  0
  3  4  1  0
  4  5  2  0
  4  8  1  0
  5  6  1  0
  5  7  1  0
  8  9  2  0
  8 14  1  0
  9 10  1  0
  9 11  1  0
 11 12  2  0
 11 13  1  0
 14 15  1  0
 15 16  1  0
 16 17  1  0
 17 18  1  0
 18 23  1  0
 18 19  2  0
 19 20  1  0
 20 21  2  0
 21 22  1  0
 21 25  1  0
 22 23  2  0
 22 24  1  0
M  CHG  1  13  -1
M  END
