lig_52
     RDKit          3D

 25 27  0  0  1  0  0  0  0  0999 V2000
   68.5252  -34.7634   27.1894 C   0  0  0  0  0  0  0  0  0  0  0  0
   69.0568  -35.4978   28.2676 C   0  0  0  0  0  0  0  0  0  0  0  0
   70.3964  -35.3071   28.6559 C   0  0  0  0  0  0  0  0  0  0  0  0
   71.2095  -34.3825   27.9795 C   0  0  0  0  0  0  0  0  0  0  0  0
   70.6719  -33.6599   26.9049 C   0  0  0  0  0  0  0  0  0  0  0  0
   69.3218  -33.8312   26.4819 C   0  0  0  0  0  0  0  0  0  0  0  0
   69.0937  -32.9429   25.3785 C   0  0  0  0  0  0  0  0  0  0  0  0
   70.2765  -32.2743   25.1420 C   0  0  0  0  0  0  0  0  0  0  0  0
   71.2061  -32.7033   26.0707 N   0  0  0  0  0  0  0  0  0  0  0  0
   70.7143  -31.2321   24.1770 C   0  0  0  0  0  0  0  0  0  0  0  0
   69.9998  -30.9353   23.1941 O   0  0  0  0  0  0  0  0  0  0  0  0
   71.8046  -30.6543   24.3750 O   0  0  0  0  0  0  0  0  0  0  0  0
   67.8031  -32.7133   24.6442 C   0  0  0  0  0  0  0  0  0  0  0  0
   67.1390  -31.3877   25.0585 C   0  0  0  0  0  0  0  0  0  0  0  0
   66.5244  -31.4287   26.4620 C   0  0  0  0  0  0  0  0  0  0  0  0
   65.3658  -32.2399   26.3782 O   0  0  0  0  0  0  0  0  0  0  0  0
   64.4938  -32.2539   27.4370 C   0  0  0  0  0  0  0  0  0  0  0  0
   63.1994  -32.7402   27.1787 C   0  0  0  0  0  0  0  0  0  0  0  0
   62.2618  -32.8548   28.2195 C   0  0  0  0  0  0  0  0  0  0  0  0
   62.6071  -32.4525   29.5232 C   0  0  0  0  0  0  0  0  0  0  0  0
   63.8837  -31.9081   29.7878 C   0  0  0  0  0  0  0  0  0  0  0  0
   64.8299  -31.8265   28.7440 C   0  0  0  0  0  0  0  0  0  0  0  0
   64.2530  -31.4187   31.1785 C   0  0  0  0  0  0  0  0  0  0  0  0
   61.4461  -32.6574   30.7782 Cl  0  0  0  0  0  0  0  0  0  0  0  0
   71.0458  -36.1894   29.9781 Cl  0  0  0  0  0  0  0  0  0  0  0  0
  1  6  2  0
  1  2  1  0
  2  3  2  0
  3  4  1  0
  3 25  1  0
  4  5  2  0
  5  9  1  0
  5  6  1  0
  6  7  1  0
  7  8  2  0
  7 13  1  0
  8  9  1  0
  8 10  1  0
 10 11  2  0
 10 12  1  0
 13 14  1  0
 14 15  1  0
 15 16  1  0
 16 17  1  0
 17 22  1  0
 17 18  2  0
 18 19  1  0
 19 20  2  0
 20 21  1  0
 20 24  1  0
 21 22  2  0
 21 23  1  0
M  CHG  1  12  -1
M  END
