lig_67
     RDKit          3D

 25 27  0  0  1  0  0  0  0  0999 V2000
   68.7188  -35.7286   28.0793 C   0  0  0  0  0  0  0  0  0  0  0  0
   70.0516  -35.6506   28.5336 C   0  0  0  0  0  0  0  0  0  0  0  0
   70.9324  -34.7067   27.9621 C   0  0  0  0  0  0  0  0  0  0  0  0
   70.4587  -33.8709   26.9345 C   0  0  0  0  0  0  0  0  0  0  0  0
   69.1381  -33.9397   26.4359 C   0  0  0  0  0  0  0  0  0  0  0  0
   68.2704  -34.8794   27.0444 C   0  0  0  0  0  0  0  0  0  0  0  0
   69.0489  -32.9581   25.3924 C   0  0  0  0  0  0  0  0  0  0  0  0
   70.2857  -32.3392   25.3178 C   0  0  0  0  0  0  0  0  0  0  0  0
   71.1451  -32.8854   26.2523 O   0  0  0  0  0  0  0  0  0  0  0  0
   70.7931  -31.2326   24.4541 C   0  0  0  0  0  0  0  0  0  0  0  0
   70.1456  -30.8615   23.4479 O   0  0  0  0  0  0  0  0  0  0  0  0
   71.8645  -30.6616   24.7534 O   0  0  0  0  0  0  0  0  0  0  0  0
   67.8322  -32.6260   24.5862 C   0  0  0  0  0  0  0  0  0  0  0  0
   67.1986  -31.3088   25.0560 C   0  0  0  0  0  0  0  0  0  0  0  0
   66.5920  -31.3784   26.4644 C   0  0  0  0  0  0  0  0  0  0  0  0
   65.4287  -32.1864   26.3768 O   0  0  0  0  0  0  0  0  0  0  0  0
   64.5431  -32.2097   27.4283 C   0  0  0  0  0  0  0  0  0  0  0  0
   64.8447  -31.7551   28.7327 C   0  0  0  0  0  0  0  0  0  0  0  0
   63.8875  -31.8591   29.7634 C   0  0  0  0  0  0  0  0  0  0  0  0
   62.6305  -32.4463   29.4959 C   0  0  0  0  0  0  0  0  0  0  0  0
   62.3163  -32.8913   28.1915 C   0  0  0  0  0  0  0  0  0  0  0  0
   63.2707  -32.7525   27.1663 C   0  0  0  0  0  0  0  0  0  0  0  0
   60.9982  -33.5771   27.8916 C   0  0  0  0  0  0  0  0  0  0  0  0
   61.4886  -32.6580   30.7768 Cl  0  0  0  0  0  0  0  0  0  0  0  0
   64.2201  -31.3679   31.1586 C   0  0  0  0  0  0  0  0  0  0  0  0
  1  6  2  0
  1  2  1  0
  2  3  2  0
  3  4  1  0
  4  9  1  0
  4  5  2  0
  5  6  1  0
  5  7  1  0
  7  8  2  0
  7 13  1  0
  8  9  1  0
  8 10  1  0
 10 11  2  0
 10 12  1  0
 13 14  1  0
 14 15  1  0
 15 16  1  0
 16 17  1  0
 17 22  1  0
 17 18  2  0
 18 19  1  0
 19 20  2  0
 19 25  1  0
 20 21  1  0
 20 24  1  0
 21 22  2  0
 21 23  1  0
M  CHG  1  12  -1
M  END
