lig_53
     RDKit          3D

 26 28  0  0  1  0  0  0  0  0999 V2000
   68.5133  -34.7340   27.2051 C   0  0  0  0  0  0  0  0  0  0  0  0
   69.0471  -35.4671   28.2817 C   0  0  0  0  0  0  0  0  0  0  0  0
   70.3889  -35.2756   28.6605 C   0  0  0  0  0  0  0  0  0  0  0  0
   71.2048  -34.3632   27.9774 C   0  0  0  0  0  0  0  0  0  0  0  0
   70.6644  -33.6406   26.9078 C   0  0  0  0  0  0  0  0  0  0  0  0
   69.3120  -33.8074   26.4940 C   0  0  0  0  0  0  0  0  0  0  0  0
   69.0825  -32.9181   25.3971 C   0  0  0  0  0  0  0  0  0  0  0  0
   70.2655  -32.2526   25.1529 C   0  0  0  0  0  0  0  0  0  0  0  0
   71.1990  -32.6853   26.0735 N   0  0  0  0  0  0  0  0  0  0  0  0
   70.7007  -31.2098   24.1888 C   0  0  0  0  0  0  0  0  0  0  0  0
   71.8068  -30.6540   24.3685 O   0  0  0  0  0  0  0  0  0  0  0  0
   69.9703  -30.8892   23.2245 O   0  0  0  0  0  0  0  0  0  0  0  0
   67.7924  -32.6801   24.6640 C   0  0  0  0  0  0  0  0  0  0  0  0
   67.1453  -31.3442   25.0723 C   0  0  0  0  0  0  0  0  0  0  0  0
   66.5181  -31.3797   26.4701 C   0  0  0  0  0  0  0  0  0  0  0  0
   65.3733  -32.2069   26.3781 O   0  0  0  0  0  0  0  0  0  0  0  0
   64.5027  -32.2423   27.4363 C   0  0  0  0  0  0  0  0  0  0  0  0
   64.8166  -31.7935   28.7399 C   0  0  0  0  0  0  0  0  0  0  0  0
   63.8660  -31.9009   29.7754 C   0  0  0  0  0  0  0  0  0  0  0  0
   62.6042  -32.4834   29.5105 C   0  0  0  0  0  0  0  0  0  0  0  0
   62.2826  -32.9225   28.2066 C   0  0  0  0  0  0  0  0  0  0  0  0
   63.2297  -32.7785   27.1778 C   0  0  0  0  0  0  0  0  0  0  0  0
   60.9510  -33.5774   27.8981 C   0  0  0  0  0  0  0  0  0  0  0  0
   61.4533  -32.6700   30.7800 Cl  0  0  0  0  0  0  0  0  0  0  0  0
   64.2167  -31.4007   31.1655 C   0  0  0  0  0  0  0  0  0  0  0  0
   71.0457  -36.1419   29.9782 Cl  0  0  0  0  0  0  0  0  0  0  0  0
  1  6  2  0
  1  2  1  0
  2  3  2  0
  3  4  1  0
  3 26  1  0
  4  5  2  0
  5  9  1  0
  5  6  1  0
  6  7  1  0
  7  8  2  0
  7 13  1  0
  8  9  1  0
  8 10  1  0
 10 11  2  0
 10 12  1  0
 13 14  1  0
 14 15  1  0
 15 16  1  0
 16 17  1  0
 17 22  1  0
 17 18  2  0
 18 19  1  0
 19 20  2  0
 19 25  1  0
 20 21  1  0
 20 24  1  0
 21 22  2  0
 21 23  1  0
M  CHG  1  12  -1
M  END
