lig_56
     RDKit          3D

 26 28  0  0  1  0  0  0  0  0999 V2000
   68.5193  -35.6583   28.0887 C   0  0  0  0  0  0  0  0  0  0  0  0
   69.8389  -35.6703   28.5718 C   0  0  0  0  0  0  0  0  0  0  0  0
   70.7995  -34.8107   28.0057 C   0  0  0  0  0  0  0  0  0  0  0  0
   70.4361  -33.9467   26.9462 C   0  0  0  0  0  0  0  0  0  0  0  0
   69.1103  -33.9320   26.4352 C   0  0  0  0  0  0  0  0  0  0  0  0
   68.1616  -34.7972   27.0326 C   0  0  0  0  0  0  0  0  0  0  0  0
   69.0533  -32.9707   25.3786 C   0  0  0  0  0  0  0  0  0  0  0  0
   70.3084  -32.4074   25.2582 C   0  0  0  0  0  0  0  0  0  0  0  0
   71.1546  -33.0054   26.2143 N   0  0  0  0  0  0  0  0  0  0  0  0
   72.5702  -32.7257   26.4267 C   0  0  0  0  0  0  0  0  0  0  0  0
   70.7879  -31.3220   24.3335 C   0  0  0  0  0  0  0  0  0  0  0  0
   70.1418  -31.0542   23.2944 O   0  0  0  0  0  0  0  0  0  0  0  0
   71.8110  -30.6540   24.6002 O   0  0  0  0  0  0  0  0  0  0  0  0
   67.8197  -32.6069   24.5987 C   0  0  0  0  0  0  0  0  0  0  0  0
   67.2075  -31.2771   25.0679 C   0  0  0  0  0  0  0  0  0  0  0  0
   66.5815  -31.3393   26.4704 C   0  0  0  0  0  0  0  0  0  0  0  0
   65.4165  -32.1369   26.3724 O   0  0  0  0  0  0  0  0  0  0  0  0
   64.5470  -32.1806   27.4342 C   0  0  0  0  0  0  0  0  0  0  0  0
   63.2734  -32.7233   27.1780 C   0  0  0  0  0  0  0  0  0  0  0  0
   62.3260  -32.8802   28.2064 C   0  0  0  0  0  0  0  0  0  0  0  0
   62.6460  -32.4455   29.5115 C   0  0  0  0  0  0  0  0  0  0  0  0
   63.9053  -31.8539   29.7774 C   0  0  0  0  0  0  0  0  0  0  0  0
   64.8547  -31.7329   28.7395 C   0  0  0  0  0  0  0  0  0  0  0  0
   64.2528  -31.3599   31.1675 C   0  0  0  0  0  0  0  0  0  0  0  0
   61.4986  -32.6573   30.7827 Cl  0  0  0  0  0  0  0  0  0  0  0  0
   60.9956  -33.5467   27.9023 C   0  0  0  0  0  0  0  0  0  0  0  0
  1  6  2  0
  1  2  1  0
  2  3  2  0
  3  4  1  0
  4  9  1  0
  4  5  2  0
  5  6  1  0
  5  7  1  0
  7  8  2  0
  7 14  1  0
  8  9  1  0
  8 11  1  0
  9 10  1  0
 11 12  2  0
 11 13  1  0
 14 15  1  0
 15 16  1  0
 16 17  1  0
 17 18  1  0
 18 23  1  0
 18 19  2  0
 19 20  1  0
 20 21  2  0
 20 26  1  0
 21 22  1  0
 21 25  1  0
 22 23  2  0
 22 24  1  0
M  CHG  1  13  -1
M  END
