lig_p38a_2bb
     RDKit          3D

 28 30  0  0  1  0  0  0  0  0999 V2000
   21.6810    8.4518   30.8727 C   0  0  0  0  0  0  0  0  0  0  0  0
   22.8814    7.8362   30.9061 N   0  0  0  0  0  0  0  0  0  0  0  0
   23.9440    8.6165   31.0651 C   0  0  0  0  0  0  0  0  0  0  0  0
   25.1644    7.9734   31.1321 N   0  0  0  0  0  0  0  0  0  0  0  0
   26.4201    8.6880   31.3184 C   0  0  0  0  0  0  0  0  0  0  0  0
   27.5321    7.7598   31.7982 C   0  0  0  0  0  0  0  0  0  0  0  0
   29.0003    8.7719   32.2422 S   0  0  0  0  0  0  0  0  0  0  0  0
   28.6456    9.5868   33.4148 O   0  0  0  0  0  0  0  0  0  0  0  0
   29.4895    9.4359   31.0263 O   0  0  0  0  0  0  0  0  0  0  0  0
   30.2140    7.5017   32.7828 C   0  0  0  0  0  0  0  0  0  0  0  0
   23.9357    9.9400   31.1925 N   0  0  0  0  0  0  0  0  0  0  0  0
   22.7491   10.5861   31.1950 C   0  0  0  0  0  0  0  0  0  0  0  0
   21.5580    9.8449   31.0293 C   0  0  0  0  0  0  0  0  0  0  0  0
   20.2801   10.5515   31.0601 C   0  0  0  0  0  0  0  0  0  0  0  0
   20.2381   11.8898   31.2648 C   0  0  0  0  0  0  0  0  0  0  0  0
   19.0848   12.6364   31.3155 O   0  0  0  0  0  0  0  0  0  0  0  0
   17.8326   12.0864   31.2268 C   0  0  0  0  0  0  0  0  0  0  0  0
   17.2808   11.3161   32.2726 C   0  0  0  0  0  0  0  0  0  0  0  0
   18.0157   11.0362   33.3730 F   0  0  0  0  0  0  0  0  0  0  0  0
   15.9569   10.8491   32.1758 C   0  0  0  0  0  0  0  0  0  0  0  0
   15.1947   11.1276   31.0265 C   0  0  0  0  0  0  0  0  0  0  0  0
   13.9464   10.6362   30.9088 F   0  0  0  0  0  0  0  0  0  0  0  0
   15.7319   11.9157   29.9972 C   0  0  0  0  0  0  0  0  0  0  0  0
   17.0434   12.4108   30.1084 C   0  0  0  0  0  0  0  0  0  0  0  0
   21.4671   12.6703   31.4254 C   0  0  0  0  0  0  0  0  0  0  0  0
   21.4071   13.8892   31.5919 O   0  0  0  0  0  0  0  0  0  0  0  0
   22.6545   12.0042   31.3870 N   0  0  0  0  0  0  0  0  0  0  0  0
   23.9111   12.7520   31.5504 C   0  0  0  0  0  0  0  0  0  0  0  0
  1 13  2  0
  1  2  1  0
  2  3  2  0
  3  4  1  0
  3 11  1  0
  4  5  1  0
  5  6  1  0
  6  7  1  0
  7  8  2  0
  7  9  2  0
  7 10  1  0
 11 12  2  0
 12 27  1  0
 12 13  1  0
 13 14  1  0
 14 15  2  0
 15 16  1  0
 15 25  1  0
 16 17  1  0
 17 24  1  0
 17 18  2  0
 18 19  1  0
 18 20  1  0
 20 21  2  0
 21 22  1  0
 21 23  1  0
 23 24  2  0
 25 26  2  0
 25 27  1  0
 27 28  1  0
M  END
