lig_p38a_2v
     RDKit          3D

 23 25  0  0  1  0  0  0  0  0999 V2000
   21.6469    8.4883   30.8266 C   0  0  0  0  0  0  0  0  0  0  0  0
   22.8395    7.8624   30.8451 N   0  0  0  0  0  0  0  0  0  0  0  0
   23.9029    8.6381   31.0287 C   0  0  0  0  0  0  0  0  0  0  0  0
   25.1155    7.9911   31.0680 N   0  0  0  0  0  0  0  0  0  0  0  0
   26.3839    8.6872   31.1899 C   0  0  0  0  0  0  0  0  0  0  0  0
   23.9036    9.9599   31.1919 N   0  0  0  0  0  0  0  0  0  0  0  0
   22.7220   10.6101   31.1994 C   0  0  0  0  0  0  0  0  0  0  0  0
   21.5303    9.8793   31.0187 C   0  0  0  0  0  0  0  0  0  0  0  0
   20.2568   10.5836   31.0643 C   0  0  0  0  0  0  0  0  0  0  0  0
   20.2212   11.9152   31.2941 C   0  0  0  0  0  0  0  0  0  0  0  0
   19.0608   12.6510   31.3534 O   0  0  0  0  0  0  0  0  0  0  0  0
   17.8202   12.0804   31.2471 C   0  0  0  0  0  0  0  0  0  0  0  0
   17.2733   11.2990   32.2867 C   0  0  0  0  0  0  0  0  0  0  0  0
   18.0053   11.0310   33.3928 F   0  0  0  0  0  0  0  0  0  0  0  0
   15.9513   10.8208   32.1814 C   0  0  0  0  0  0  0  0  0  0  0  0
   15.1852   11.1011   31.0351 C   0  0  0  0  0  0  0  0  0  0  0  0
   13.9283   10.6147   30.9117 F   0  0  0  0  0  0  0  0  0  0  0  0
   15.7304   11.8863   30.0050 C   0  0  0  0  0  0  0  0  0  0  0  0
   17.0380   12.3928   30.1185 C   0  0  0  0  0  0  0  0  0  0  0  0
   21.4521   12.6937   31.4718 C   0  0  0  0  0  0  0  0  0  0  0  0
   21.3971   13.9073   31.6816 O   0  0  0  0  0  0  0  0  0  0  0  0
   22.6394   12.0239   31.4050 N   0  0  0  0  0  0  0  0  0  0  0  0
   23.9077   12.7594   31.5839 C   0  0  0  0  0  0  0  0  0  0  0  0
  1  8  2  0
  1  2  1  0
  2  3  2  0
  3  4  1  0
  3  6  1  0
  4  5  1  0
  6  7  2  0
  7 22  1  0
  7  8  1  0
  8  9  1  0
  9 10  2  0
 10 11  1  0
 10 20  1  0
 11 12  1  0
 12 19  1  0
 12 13  2  0
 13 14  1  0
 13 15  1  0
 15 16  2  0
 16 17  1  0
 16 18  1  0
 18 19  2  0
 20 21  2  0
 20 22  1  0
 22 23  1  0
M  END
