lig_p38a_2f
     RDKit          3D

 27 30  0  0  1  0  0  0  0  0999 V2000
   21.6472    8.4576   30.9072 C   0  0  0  0  0  0  0  0  0  0  0  0
   22.8525    7.8424   30.9332 N   0  0  0  0  0  0  0  0  0  0  0  0
   23.9162    8.6347   31.0601 C   0  0  0  0  0  0  0  0  0  0  0  0
   25.1394    8.0081   31.1974 N   0  0  0  0  0  0  0  0  0  0  0  0
   26.4221    8.7072   31.3209 C   0  0  0  0  0  0  0  0  0  0  0  0
   26.5817    9.5042   32.6401 C   0  0  0  0  0  0  0  0  0  0  0  0
   26.7800    8.5773   33.8487 C   0  0  0  0  0  0  0  0  0  0  0  0
   27.9220    7.7595   33.6324 O   0  0  0  0  0  0  0  0  0  0  0  0
   27.7692    6.8989   32.5108 C   0  0  0  0  0  0  0  0  0  0  0  0
   27.5924    7.7171   31.2170 C   0  0  0  0  0  0  0  0  0  0  0  0
   23.9016    9.9619   31.1275 N   0  0  0  0  0  0  0  0  0  0  0  0
   22.7161   10.6018   31.1516 C   0  0  0  0  0  0  0  0  0  0  0  0
   21.5249    9.8565   31.0392 C   0  0  0  0  0  0  0  0  0  0  0  0
   20.2517   10.5684   31.1066 C   0  0  0  0  0  0  0  0  0  0  0  0
   20.2176   11.9069   31.3032 C   0  0  0  0  0  0  0  0  0  0  0  0
   19.0596   12.6470   31.3913 O   0  0  0  0  0  0  0  0  0  0  0  0
   17.8192   12.0786   31.3092 C   0  0  0  0  0  0  0  0  0  0  0  0
   17.2701   11.3734   32.4013 C   0  0  0  0  0  0  0  0  0  0  0  0
   15.9582   10.8674   32.3200 C   0  0  0  0  0  0  0  0  0  0  0  0
   15.2027   11.0524   31.1520 C   0  0  0  0  0  0  0  0  0  0  0  0
   15.7546   11.7512   30.0632 C   0  0  0  0  0  0  0  0  0  0  0  0
   15.0654   11.8216   28.9109 F   0  0  0  0  0  0  0  0  0  0  0  0
   17.0495   12.2918   30.1499 C   0  0  0  0  0  0  0  0  0  0  0  0
   21.4494   12.6921   31.4132 C   0  0  0  0  0  0  0  0  0  0  0  0
   21.4026   13.9117   31.5773 O   0  0  0  0  0  0  0  0  0  0  0  0
   22.6322   12.0200   31.3306 N   0  0  0  0  0  0  0  0  0  0  0  0
   23.8986   12.7603   31.4578 C   0  0  0  0  0  0  0  0  0  0  0  0
  1 13  2  0
  1  2  1  0
  2  3  2  0
  3  4  1  0
  3 11  1  0
  4  5  1  0
  5 10  1  0
  5  6  1  0
  6  7  1  0
  7  8  1  0
  8  9  1  0
  9 10  1  0
 11 12  2  0
 12 26  1  0
 12 13  1  0
 13 14  1  0
 14 15  2  0
 15 16  1  0
 15 24  1  0
 16 17  1  0
 17 23  1  0
 17 18  2  0
 18 19  1  0
 19 20  2  0
 20 21  1  0
 21 22  1  0
 21 23  2  0
 24 25  2  0
 24 26  1  0
 26 27  1  0
M  END
