lig_p38a_2x
     RDKit          3D

 27 30  0  0  1  0  0  0  0  0999 V2000
   21.5853    8.4535   30.8994 C   0  0  0  0  0  0  0  0  0  0  0  0
   22.7865    7.8354   30.9092 N   0  0  0  0  0  0  0  0  0  0  0  0
   23.8505    8.6189   31.0709 C   0  0  0  0  0  0  0  0  0  0  0  0
   25.0794    7.9922   31.0627 N   0  0  0  0  0  0  0  0  0  0  0  0
   26.3271    8.7167   31.2700 C   0  0  1  0  0  0  0  0  0  0  0  0
   27.5522    7.8287   31.3874 C   0  0  0  0  0  0  0  0  0  0  0  0
   28.6158    8.7567   31.2324 O   0  0  0  0  0  0  0  0  0  0  0  0
   28.2028    9.8313   30.3872 C   0  0  0  0  0  0  0  0  0  0  0  0
   26.7197    9.6186   30.1151 C   0  0  0  0  0  0  0  0  0  0  0  0
   23.8372    9.9403   31.2363 N   0  0  0  0  0  0  0  0  0  0  0  0
   22.6525   10.5794   31.2601 C   0  0  0  0  0  0  0  0  0  0  0  0
   21.4637    9.8465   31.0777 C   0  0  0  0  0  0  0  0  0  0  0  0
   20.1927   10.5597   31.0980 C   0  0  0  0  0  0  0  0  0  0  0  0
   20.1555   11.8969   31.3013 C   0  0  0  0  0  0  0  0  0  0  0  0
   18.9990   12.6398   31.3267 O   0  0  0  0  0  0  0  0  0  0  0  0
   17.7543   12.0762   31.2350 C   0  0  0  0  0  0  0  0  0  0  0  0
   17.2067   11.3060   32.2829 C   0  0  0  0  0  0  0  0  0  0  0  0
   17.9460   11.0321   33.3814 F   0  0  0  0  0  0  0  0  0  0  0  0
   15.8867   10.8261   32.1856 C   0  0  0  0  0  0  0  0  0  0  0  0
   15.1256   11.0919   31.0299 C   0  0  0  0  0  0  0  0  0  0  0  0
   13.8781   10.5944   30.9062 F   0  0  0  0  0  0  0  0  0  0  0  0
   15.6663   11.8723   29.9934 C   0  0  0  0  0  0  0  0  0  0  0  0
   16.9710   12.3792   30.1070 C   0  0  0  0  0  0  0  0  0  0  0  0
   21.3877   12.6709   31.4793 C   0  0  0  0  0  0  0  0  0  0  0  0
   21.3482   13.8935   31.6248 O   0  0  0  0  0  0  0  0  0  0  0  0
   22.5672   11.9907   31.4713 N   0  0  0  0  0  0  0  0  0  0  0  0
   23.8314   12.7233   31.6629 C   0  0  0  0  0  0  0  0  0  0  0  0
  1 12  2  0
  1  2  1  0
  2  3  2  0
  3  4  1  0
  3 10  1  0
  5  4  1  6
  5  9  1  0
  5  6  1  0
  6  7  1  0
  7  8  1  0
  8  9  1  0
 10 11  2  0
 11 26  1  0
 11 12  1  0
 12 13  1  0
 13 14  2  0
 14 15  1  0
 14 24  1  0
 15 16  1  0
 16 23  1  0
 16 17  2  0
 17 18  1  0
 17 19  1  0
 19 20  2  0
 20 21  1  0
 20 22  1  0
 22 23  2  0
 24 25  2  0
 24 26  1  0
 26 27  1  0
M  END
