lig_p38a_2g
     RDKit          3D

 27 30  0  0  1  0  0  0  0  0999 V2000
   21.6150    8.4565   30.8563 C   0  0  0  0  0  0  0  0  0  0  0  0
   22.8120    7.8328   30.9096 N   0  0  0  0  0  0  0  0  0  0  0  0
   23.8749    8.6101   31.0976 C   0  0  0  0  0  0  0  0  0  0  0  0
   25.0983    7.9706   31.1818 N   0  0  0  0  0  0  0  0  0  0  0  0
   26.3674    8.6693   31.2754 C   0  0  0  0  0  0  0  0  0  0  0  0
   27.3967    7.8227   32.0321 C   0  0  0  0  0  0  0  0  0  0  0  0
   28.6857    8.6370   32.1910 C   0  0  0  0  0  0  0  0  0  0  0  0
   29.1507    9.0398   30.9104 O   0  0  0  0  0  0  0  0  0  0  0  0
   28.1974    9.7656   30.1406 C   0  0  0  0  0  0  0  0  0  0  0  0
   26.8954    9.0261   29.9161 C   0  0  0  0  0  0  0  0  0  0  0  0
   23.8641    9.9322   31.2288 N   0  0  0  0  0  0  0  0  0  0  0  0
   22.6797   10.5811   31.2049 C   0  0  0  0  0  0  0  0  0  0  0  0
   21.4922    9.8480   31.0195 C   0  0  0  0  0  0  0  0  0  0  0  0
   20.2193   10.5634   31.0470 C   0  0  0  0  0  0  0  0  0  0  0  0
   20.1800   11.8949   31.2623 C   0  0  0  0  0  0  0  0  0  0  0  0
   19.0200   12.6363   31.3120 O   0  0  0  0  0  0  0  0  0  0  0  0
   17.7756   12.0592   31.2578 C   0  0  0  0  0  0  0  0  0  0  0  0
   17.2661   11.2961   32.3271 C   0  0  0  0  0  0  0  0  0  0  0  0
   18.0427   11.0360   33.4055 F   0  0  0  0  0  0  0  0  0  0  0  0
   15.9418   10.8162   32.2832 C   0  0  0  0  0  0  0  0  0  0  0  0
   15.1367   11.0713   31.1537 C   0  0  0  0  0  0  0  0  0  0  0  0
   15.6448   11.8342   30.0876 C   0  0  0  0  0  0  0  0  0  0  0  0
   16.9575   12.3407   30.1478 C   0  0  0  0  0  0  0  0  0  0  0  0
   21.4136   12.6756   31.4226 C   0  0  0  0  0  0  0  0  0  0  0  0
   21.3657   13.8913   31.5830 O   0  0  0  0  0  0  0  0  0  0  0  0
   22.5968   11.9948   31.3870 N   0  0  0  0  0  0  0  0  0  0  0  0
   23.8645   12.7221   31.5620 C   0  0  0  0  0  0  0  0  0  0  0  0
  1 13  2  0
  1  2  1  0
  2  3  2  0
  3  4  1  0
  3 11  1  0
  4  5  1  0
  5 10  1  0
  5  6  1  0
  6  7  1  0
  7  8  1  0
  8  9  1  0
  9 10  1  0
 11 12  2  0
 12 26  1  0
 12 13  1  0
 13 14  1  0
 14 15  2  0
 15 16  1  0
 15 24  1  0
 16 17  1  0
 17 23  1  0
 17 18  2  0
 18 19  1  0
 18 20  1  0
 20 21  2  0
 21 22  1  0
 22 23  2  0
 24 25  2  0
 24 26  1  0
 26 27  1  0
M  END
