lig_p38a_2ff
     RDKit          3D

 29 32  0  0  1  0  0  0  0  0999 V2000
   30.1368    9.9257   33.0193 O   0  0  0  0  0  0  0  0  0  0  0  0
   28.9008    9.2478   32.9005 C   0  0  1  0  0  0  0  0  0  0  0  0
   27.7499   10.2582   32.8740 C   0  0  0  0  0  0  0  0  0  0  0  0
   26.4197    9.5322   32.6563 C   0  0  0  0  0  0  0  0  0  0  0  0
   26.4076    8.7419   31.3165 C   0  0  2  0  0  0  0  0  0  0  0  0
   25.1405    8.0466   31.0984 N   0  0  0  0  0  0  0  0  0  0  0  0
   23.9085    8.6635   31.0087 C   0  0  0  0  0  0  0  0  0  0  0  0
   23.8818    9.9923   31.0649 N   0  0  0  0  0  0  0  0  0  0  0  0
   22.6908   10.6187   31.1028 C   0  0  0  0  0  0  0  0  0  0  0  0
   21.5097    9.8646   30.9819 C   0  0  0  0  0  0  0  0  0  0  0  0
   21.6493    8.4685   30.8612 C   0  0  0  0  0  0  0  0  0  0  0  0
   22.8554    7.8599   30.8999 N   0  0  0  0  0  0  0  0  0  0  0  0
   20.2264   10.5601   31.0402 C   0  0  0  0  0  0  0  0  0  0  0  0
   20.1814   11.8983   31.2437 C   0  0  0  0  0  0  0  0  0  0  0  0
   19.0231   12.6365   31.3232 O   0  0  0  0  0  0  0  0  0  0  0  0
   17.7798   12.0730   31.2238 C   0  0  0  0  0  0  0  0  0  0  0  0
   17.2304   11.3051   32.2712 C   0  0  0  0  0  0  0  0  0  0  0  0
   17.9718   11.0370   33.3693 F   0  0  0  0  0  0  0  0  0  0  0  0
   15.9079   10.8309   32.1725 C   0  0  0  0  0  0  0  0  0  0  0  0
   15.1463   11.1062   31.0234 C   0  0  0  0  0  0  0  0  0  0  0  0
   13.8992   10.6039   30.9096 F   0  0  0  0  0  0  0  0  0  0  0  0
   15.6861   11.8843   29.9878 C   0  0  0  0  0  0  0  0  0  0  0  0
   16.9960   12.3804   30.0981 C   0  0  0  0  0  0  0  0  0  0  0  0
   21.4086   12.6901   31.3773 C   0  0  0  0  0  0  0  0  0  0  0  0
   21.3514   13.9050   31.5765 O   0  0  0  0  0  0  0  0  0  0  0  0
   22.5965   12.0328   31.2904 N   0  0  0  0  0  0  0  0  0  0  0  0
   23.8552   12.7779   31.4534 C   0  0  0  0  0  0  0  0  0  0  0  0
   27.5614    7.7267   31.3439 C   0  0  0  0  0  0  0  0  0  0  0  0
   28.9160    8.4065   31.6201 C   0  0  0  0  0  0  0  0  0  0  0  0
  2  1  1  6
  2 29  1  0
  2  3  1  0
  3  4  1  0
  4  5  1  0
  5  6  1  1
  5 28  1  0
  6  7  1  0
  7 12  1  0
  7  8  2  0
  8  9  1  0
  9 26  1  0
  9 10  2  0
 10 11  1  0
 10 13  1  0
 11 12  2  0
 13 14  2  0
 14 15  1  0
 14 24  1  0
 15 16  1  0
 16 23  1  0
 16 17  2  0
 17 18  1  0
 17 19  1  0
 19 20  2  0
 20 21  1  0
 20 22  1  0
 22 23  2  0
 24 25  2  0
 24 26  1  0
 26 27  1  0
 28 29  1  0
M  END
