lig_p38a_2s
     RDKit          3D

 32 35  0  0  1  0  0  0  0  0999 V2000
   26.7720   12.8225   32.8673 O   0  0  0  0  0  0  0  0  0  0  0  0
   25.6406   13.3920   33.4910 C   0  0  0  0  0  0  0  0  0  0  0  0
   24.3556   12.6012   33.1648 C   0  0  1  0  0  0  0  0  0  0  0  0
   23.3482   13.0363   34.0382 O   0  0  0  0  0  0  0  0  0  0  0  0
   23.8848   12.7724   31.6982 C   0  0  0  0  0  0  0  0  0  0  0  0
   22.6425   12.0141   31.4039 N   0  0  0  0  0  0  0  0  0  0  0  0
   21.4554   12.6852   31.4283 C   0  0  0  0  0  0  0  0  0  0  0  0
   21.3907   13.9062   31.6018 O   0  0  0  0  0  0  0  0  0  0  0  0
   20.2312   11.9040   31.2457 C   0  0  0  0  0  0  0  0  0  0  0  0
   19.0710   12.6414   31.2926 O   0  0  0  0  0  0  0  0  0  0  0  0
   17.8272   12.0837   31.2056 C   0  0  0  0  0  0  0  0  0  0  0  0
   17.0377   12.4001   30.0866 C   0  0  0  0  0  0  0  0  0  0  0  0
   15.7267   11.9072   29.9914 C   0  0  0  0  0  0  0  0  0  0  0  0
   15.1903   11.1268   31.0256 C   0  0  0  0  0  0  0  0  0  0  0  0
   13.9317   10.6349   30.9092 F   0  0  0  0  0  0  0  0  0  0  0  0
   15.9565   10.8482   32.1700 C   0  0  0  0  0  0  0  0  0  0  0  0
   17.2856   11.3114   32.2563 C   0  0  0  0  0  0  0  0  0  0  0  0
   18.0316   11.0357   33.3499 F   0  0  0  0  0  0  0  0  0  0  0  0
   20.2797   10.5678   31.0447 C   0  0  0  0  0  0  0  0  0  0  0  0
   21.5609    9.8559   31.0257 C   0  0  0  0  0  0  0  0  0  0  0  0
   22.7467   10.6001   31.1921 C   0  0  0  0  0  0  0  0  0  0  0  0
   23.9351    9.9580   31.1882 N   0  0  0  0  0  0  0  0  0  0  0  0
   23.9480    8.6326   31.0750 C   0  0  0  0  0  0  0  0  0  0  0  0
   25.1698    7.9978   31.1968 N   0  0  0  0  0  0  0  0  0  0  0  0
   26.4716    8.6642   31.3024 C   0  0  0  0  0  0  0  0  0  0  0  0
   26.6653    9.4681   32.6018 C   0  0  0  0  0  0  0  0  0  0  0  0
   26.7577    8.5655   33.8456 C   0  0  0  0  0  0  0  0  0  0  0  0
   27.8603    7.6871   33.6781 O   0  0  0  0  0  0  0  0  0  0  0  0
   27.7049    6.8269   32.5548 C   0  0  0  0  0  0  0  0  0  0  0  0
   27.6168    7.6382   31.2445 C   0  0  0  0  0  0  0  0  0  0  0  0
   22.8805    7.8467   30.9124 N   0  0  0  0  0  0  0  0  0  0  0  0
   21.6797    8.4645   30.8682 C   0  0  0  0  0  0  0  0  0  0  0  0
  1  2  1  0
  2  3  1  0
  3  4  1  1
  3  5  1  0
  5  6  1  0
  6 21  1  0
  6  7  1  0
  7  8  2  0
  7  9  1  0
  9 10  1  0
  9 19  2  0
 10 11  1  0
 11 17  1  0
 11 12  2  0
 12 13  1  0
 13 14  2  0
 14 15  1  0
 14 16  1  0
 16 17  2  0
 17 18  1  0
 19 20  1  0
 20 32  1  0
 20 21  2  0
 21 22  1  0
 22 23  2  0
 23 24  1  0
 23 31  1  0
 24 25  1  0
 25 30  1  0
 25 26  1  0
 26 27  1  0
 27 28  1  0
 28 29  1  0
 29 30  1  0
 31 32  2  0
M  END
