lig_p38a_2ee
     RDKit          3D

 31 34  0  0  1  0  0  0  0  0999 V2000
   21.6581    8.4812   30.8763 C   0  0  0  0  0  0  0  0  0  0  0  0
   22.8654    7.8668   30.9099 N   0  0  0  0  0  0  0  0  0  0  0  0
   23.9200    8.6775   31.0279 C   0  0  0  0  0  0  0  0  0  0  0  0
   25.1477    8.0602   31.1564 N   0  0  0  0  0  0  0  0  0  0  0  0
   26.4304    8.7317   31.3194 C   0  0  0  0  0  0  0  0  0  0  0  0
   26.5275    9.5591   32.6321 C   0  0  0  0  0  0  0  0  0  0  0  0
   26.5436    8.6599   33.8813 C   0  0  0  0  0  0  0  0  0  0  0  0
   27.6660    7.7243   33.7814 N   0  0  0  0  0  0  0  0  0  0  0  0
   28.6251    7.6391   34.7366 C   0  0  0  0  0  0  0  0  0  0  0  0
   28.6260    8.3449   35.7490 O   0  0  0  0  0  0  0  0  0  0  0  0
   29.7625    6.6252   34.5794 C   0  0  0  0  0  0  0  0  0  0  0  0
   27.5829    6.8543   32.6079 C   0  0  0  0  0  0  0  0  0  0  0  0
   27.5655    7.6861   31.3057 C   0  0  0  0  0  0  0  0  0  0  0  0
   23.9059   10.0096   31.0831 N   0  0  0  0  0  0  0  0  0  0  0  0
   22.6989   10.6301   31.1124 C   0  0  0  0  0  0  0  0  0  0  0  0
   21.5125    9.8758   31.0039 C   0  0  0  0  0  0  0  0  0  0  0  0
   20.2366   10.5741   31.0779 C   0  0  0  0  0  0  0  0  0  0  0  0
   20.1980   11.9117   31.2737 C   0  0  0  0  0  0  0  0  0  0  0  0
   19.0321   12.6461   31.3698 O   0  0  0  0  0  0  0  0  0  0  0  0
   17.7950   12.0758   31.2433 C   0  0  0  0  0  0  0  0  0  0  0  0
   17.2268   11.3090   32.2817 C   0  0  0  0  0  0  0  0  0  0  0  0
   17.9499   11.0241   33.3869 F   0  0  0  0  0  0  0  0  0  0  0  0
   15.8982   10.8351   32.1620 C   0  0  0  0  0  0  0  0  0  0  0  0
   15.1583   11.1203   31.0058 C   0  0  0  0  0  0  0  0  0  0  0  0
   13.9071   10.6304   30.8747 F   0  0  0  0  0  0  0  0  0  0  0  0
   15.7200   11.8934   29.9757 C   0  0  0  0  0  0  0  0  0  0  0  0
   17.0275   12.3905   30.1090 C   0  0  0  0  0  0  0  0  0  0  0  0
   21.4196   12.7143   31.3771 C   0  0  0  0  0  0  0  0  0  0  0  0
   21.3612   13.9265   31.5650 O   0  0  0  0  0  0  0  0  0  0  0  0
   22.6066   12.0423   31.3003 N   0  0  0  0  0  0  0  0  0  0  0  0
   23.8726   12.7812   31.4514 C   0  0  0  0  0  0  0  0  0  0  0  0
  1 16  2  0
  1  2  1  0
  2  3  2  0
  3  4  1  0
  3 14  1  0
  4  5  1  0
  5 13  1  0
  5  6  1  0
  6  7  1  0
  7  8  1  0
  8  9  1  0
  8 12  1  0
  9 10  2  0
  9 11  1  0
 12 13  1  0
 14 15  2  0
 15 30  1  0
 15 16  1  0
 16 17  1  0
 17 18  2  0
 18 19  1  0
 18 28  1  0
 19 20  1  0
 20 27  1  0
 20 21  2  0
 21 22  1  0
 21 23  1  0
 23 24  2  0
 24 25  1  0
 24 26  1  0
 26 27  2  0
 28 29  2  0
 28 30  1  0
 30 31  1  0
M  END
