lig_p38a_3fly
     RDKit          3D

 25 27  0  0  1  0  0  0  0  0999 V2000
   21.6587    8.4914   30.8206 C   0  0  0  0  0  0  0  0  0  0  0  0
   22.8582    7.8722   30.8317 N   0  0  0  0  0  0  0  0  0  0  0  0
   23.9192    8.6538   31.0209 C   0  0  0  0  0  0  0  0  0  0  0  0
   25.1411    8.0193   31.0656 N   0  0  0  0  0  0  0  0  0  0  0  0
   26.4164    8.7183   31.1848 C   0  0  0  0  0  0  0  0  0  0  0  0
   26.8684    9.2907   29.8329 C   0  0  0  0  0  0  0  0  0  0  0  0
   27.4720    7.7870   31.7786 C   0  0  0  0  0  0  0  0  0  0  0  0
   23.9043    9.9735   31.1946 N   0  0  0  0  0  0  0  0  0  0  0  0
   22.7202   10.6158   31.2095 C   0  0  0  0  0  0  0  0  0  0  0  0
   21.5317    9.8808   31.0233 C   0  0  0  0  0  0  0  0  0  0  0  0
   20.2571   10.5845   31.0702 C   0  0  0  0  0  0  0  0  0  0  0  0
   20.2159   11.9155   31.2987 C   0  0  0  0  0  0  0  0  0  0  0  0
   19.0567   12.6506   31.3554 O   0  0  0  0  0  0  0  0  0  0  0  0
   17.8145   12.0848   31.2508 C   0  0  0  0  0  0  0  0  0  0  0  0
   17.2676   11.3024   32.2899 C   0  0  0  0  0  0  0  0  0  0  0  0
   18.0041   11.0304   33.3915 F   0  0  0  0  0  0  0  0  0  0  0  0
   15.9472   10.8202   32.1844 C   0  0  0  0  0  0  0  0  0  0  0  0
   15.1842   11.1021   31.0353 C   0  0  0  0  0  0  0  0  0  0  0  0
   13.9295   10.6154   30.9086 F   0  0  0  0  0  0  0  0  0  0  0  0
   15.7269   11.8874   30.0041 C   0  0  0  0  0  0  0  0  0  0  0  0
   17.0335   12.3967   30.1195 C   0  0  0  0  0  0  0  0  0  0  0  0
   21.4446   12.6976   31.4710 C   0  0  0  0  0  0  0  0  0  0  0  0
   21.3885   13.9144   31.6492 O   0  0  0  0  0  0  0  0  0  0  0  0
   22.6327   12.0291   31.4243 N   0  0  0  0  0  0  0  0  0  0  0  0
   23.8985   12.7725   31.5838 C   0  0  0  0  0  0  0  0  0  0  0  0
  1 10  2  0
  1  2  1  0
  2  3  2  0
  3  4  1  0
  3  8  1  0
  4  5  1  0
  5  6  1  0
  5  7  1  0
  8  9  2  0
  9 24  1  0
  9 10  1  0
 10 11  1  0
 11 12  2  0
 12 13  1  0
 12 22  1  0
 13 14  1  0
 14 21  1  0
 14 15  2  0
 15 16  1  0
 15 17  1  0
 17 18  2  0
 18 19  1  0
 18 20  1  0
 20 21  2  0
 22 23  2  0
 22 24  1  0
 24 25  1  0
M  END
