lig_p38a_2p
     RDKit          3D

 34 37  0  0  1  0  0  0  0  0999 V2000
   21.5802    8.4622   30.8909 C   0  0  0  0  0  0  0  0  0  0  0  0
   22.7739    7.8326   30.9104 N   0  0  0  0  0  0  0  0  0  0  0  0
   23.8477    8.6012   31.0499 C   0  0  0  0  0  0  0  0  0  0  0  0
   25.0663    7.9529   31.1472 N   0  0  0  0  0  0  0  0  0  0  0  0
   26.3576    8.6353   31.2631 C   0  0  0  0  0  0  0  0  0  0  0  0
   26.5348    9.3678   32.6018 C   0  0  0  0  0  0  0  0  0  0  0  0
   26.7440    8.3965   33.7730 C   0  0  0  0  0  0  0  0  0  0  0  0
   27.9060    7.6282   33.5159 O   0  0  0  0  0  0  0  0  0  0  0  0
   27.7635    6.8135   32.3626 C   0  0  0  0  0  0  0  0  0  0  0  0
   27.5313    7.6641   31.0978 C   0  0  0  0  0  0  0  0  0  0  0  0
   23.8453    9.9250   31.1500 N   0  0  0  0  0  0  0  0  0  0  0  0
   22.6727   10.5896   31.1898 C   0  0  0  0  0  0  0  0  0  0  0  0
   21.4764    9.8591   31.0461 C   0  0  0  0  0  0  0  0  0  0  0  0
   20.2125   10.5774   31.0817 C   0  0  0  0  0  0  0  0  0  0  0  0
   20.1843   11.9140   31.2716 C   0  0  0  0  0  0  0  0  0  0  0  0
   19.0309   12.6624   31.2959 O   0  0  0  0  0  0  0  0  0  0  0  0
   17.7841   12.1048   31.2059 C   0  0  0  0  0  0  0  0  0  0  0  0
   17.2453   11.3214   32.2487 C   0  0  0  0  0  0  0  0  0  0  0  0
   17.9948   11.0326   33.3369 F   0  0  0  0  0  0  0  0  0  0  0  0
   15.9238   10.8442   32.1584 C   0  0  0  0  0  0  0  0  0  0  0  0
   15.1525   11.1261   31.0163 C   0  0  0  0  0  0  0  0  0  0  0  0
   13.9006   10.6341   30.9070 F   0  0  0  0  0  0  0  0  0  0  0  0
   15.6833   11.9167   29.9821 C   0  0  0  0  0  0  0  0  0  0  0  0
   16.9912   12.4213   30.0867 C   0  0  0  0  0  0  0  0  0  0  0  0
   21.4182   12.6893   31.4275 C   0  0  0  0  0  0  0  0  0  0  0  0
   21.3657   13.9113   31.5709 O   0  0  0  0  0  0  0  0  0  0  0  0
   22.6052   12.0128   31.3967 N   0  0  0  0  0  0  0  0  0  0  0  0
   23.8931   12.7536   31.4572 C   0  0  0  0  0  0  0  0  0  0  0  0
   24.0521   13.8368   32.5230 C   0  0  0  0  0  0  0  0  0  0  0  0
   25.5222   14.0308   32.9420 C   0  0  0  0  0  0  0  0  0  0  0  0
   25.8393   13.4628   34.6707 S   0  0  0  0  0  0  0  0  0  0  0  0
   26.6481   14.5133   35.3086 O   0  0  0  0  0  0  0  0  0  0  0  0
   24.5729   13.0357   35.2962 O   0  0  0  0  0  0  0  0  0  0  0  0
   26.9456   12.0292   34.4796 C   0  0  0  0  0  0  0  0  0  0  0  0
  1 13  2  0
  1  2  1  0
  2  3  2  0
  3  4  1  0
  3 11  1  0
  4  5  1  0
  5 10  1  0
  5  6  1  0
  6  7  1  0
  7  8  1  0
  8  9  1  0
  9 10  1  0
 11 12  2  0
 12 27  1  0
 12 13  1  0
 13 14  1  0
 14 15  2  0
 15 16  1  0
 15 25  1  0
 16 17  1  0
 17 24  1  0
 17 18  2  0
 18 19  1  0
 18 20  1  0
 20 21  2  0
 21 22  1  0
 21 23  1  0
 23 24  2  0
 25 26  2  0
 25 27  1  0
 27 28  1  0
 28 29  1  0
 29 30  1  0
 30 31  1  0
 31 32  2  0
 31 33  2  0
 31 34  1  0
M  END
