lig_p38a_2k
     RDKit          3D

 27 30  0  0  1  0  0  0  0  0999 V2000
   21.6007    8.4523   30.8596 C   0  0  0  0  0  0  0  0  0  0  0  0
   22.8026    7.8361   30.9014 N   0  0  0  0  0  0  0  0  0  0  0  0
   23.8687    8.6160   31.0733 C   0  0  0  0  0  0  0  0  0  0  0  0
   25.0869    7.9686   31.1452 N   0  0  0  0  0  0  0  0  0  0  0  0
   26.3624    8.6637   31.2905 C   0  0  0  0  0  0  0  0  0  0  0  0
   27.3824    7.8029   32.0419 C   0  0  0  0  0  0  0  0  0  0  0  0
   28.6726    8.6071   32.2439 C   0  0  0  0  0  0  0  0  0  0  0  0
   29.1587    9.0372   30.9807 O   0  0  0  0  0  0  0  0  0  0  0  0
   28.2464    9.8582   30.2593 C   0  0  0  0  0  0  0  0  0  0  0  0
   26.9455    9.1144   29.9617 C   0  0  0  0  0  0  0  0  0  0  0  0
   23.8617    9.9430   31.2050 N   0  0  0  0  0  0  0  0  0  0  0  0
   22.6728   10.5685   31.1917 C   0  0  0  0  0  0  0  0  0  0  0  0
   21.4802    9.8451   31.0166 C   0  0  0  0  0  0  0  0  0  0  0  0
   20.2127   10.5761   31.0380 C   0  0  0  0  0  0  0  0  0  0  0  0
   20.1866   11.9147   31.2496 C   0  0  0  0  0  0  0  0  0  0  0  0
   19.0396   12.6712   31.2801 O   0  0  0  0  0  0  0  0  0  0  0  0
   17.7899   12.1176   31.1999 C   0  0  0  0  0  0  0  0  0  0  0  0
   17.2576   11.3284   32.2414 C   0  0  0  0  0  0  0  0  0  0  0  0
   18.0141   11.0360   33.3239 F   0  0  0  0  0  0  0  0  0  0  0  0
   15.9362   10.8479   32.1555 C   0  0  0  0  0  0  0  0  0  0  0  0
   15.1573   11.1337   31.0190 C   0  0  0  0  0  0  0  0  0  0  0  0
   13.9068   10.6361   30.9096 F   0  0  0  0  0  0  0  0  0  0  0  0
   15.6807   11.9344   29.9889 C   0  0  0  0  0  0  0  0  0  0  0  0
   16.9878   12.4421   30.0906 C   0  0  0  0  0  0  0  0  0  0  0  0
   21.4301   12.6698   31.4327 C   0  0  0  0  0  0  0  0  0  0  0  0
   21.4528   13.8820   31.6354 O   0  0  0  0  0  0  0  0  0  0  0  0
   22.5766   11.9641   31.3751 N   0  0  0  0  0  0  0  0  0  0  0  0
  1 13  2  0
  1  2  1  0
  2  3  2  0
  3  4  1  0
  3 11  1  0
  4  5  1  0
  5 10  1  0
  5  6  1  0
  6  7  1  0
  7  8  1  0
  8  9  1  0
  9 10  1  0
 11 12  2  0
 12 27  1  0
 12 13  1  0
 13 14  1  0
 14 15  2  0
 15 16  1  0
 15 25  1  0
 16 17  1  0
 17 24  1  0
 17 18  2  0
 18 19  1  0
 18 20  1  0
 20 21  2  0
 21 22  1  0
 21 23  1  0
 23 24  2  0
 25 26  2  0
 25 27  1  0
M  END
