lig_p38a_2r
     RDKit          3D

 32 35  0  0  1  0  0  0  0  0999 V2000
   25.3478   13.8362   33.2674 O   0  0  0  0  0  0  0  0  0  0  0  0
   24.4613   12.7441   33.1375 C   0  0  0  0  0  0  0  0  0  0  0  0
   25.3153   11.5223   33.5003 C   0  0  0  0  0  0  0  0  0  0  0  0
   23.3682   12.9402   34.1998 C   0  0  0  0  0  0  0  0  0  0  0  0
   23.9386   12.7402   31.6614 C   0  0  0  0  0  0  0  0  0  0  0  0
   22.6615   12.0113   31.4291 N   0  0  0  0  0  0  0  0  0  0  0  0
   21.4806   12.6963   31.4831 C   0  0  0  0  0  0  0  0  0  0  0  0
   21.4422   13.9082   31.7002 O   0  0  0  0  0  0  0  0  0  0  0  0
   20.2389   11.9394   31.2889 C   0  0  0  0  0  0  0  0  0  0  0  0
   19.0897   12.6950   31.3351 O   0  0  0  0  0  0  0  0  0  0  0  0
   17.8383   12.1473   31.2256 C   0  0  0  0  0  0  0  0  0  0  0  0
   17.2884   11.3443   32.2473 C   0  0  0  0  0  0  0  0  0  0  0  0
   18.0284   11.0356   33.3367 F   0  0  0  0  0  0  0  0  0  0  0  0
   15.9698   10.8623   32.1324 C   0  0  0  0  0  0  0  0  0  0  0  0
   15.2127   11.1552   30.9824 C   0  0  0  0  0  0  0  0  0  0  0  0
   13.9746   10.6362   30.8350 F   0  0  0  0  0  0  0  0  0  0  0  0
   15.7483   11.9772   29.9749 C   0  0  0  0  0  0  0  0  0  0  0  0
   17.0532   12.4872   30.1075 C   0  0  0  0  0  0  0  0  0  0  0  0
   20.2575   10.6074   31.0643 C   0  0  0  0  0  0  0  0  0  0  0  0
   21.5190    9.8816   31.0143 C   0  0  0  0  0  0  0  0  0  0  0  0
   22.7208   10.6052   31.1583 C   0  0  0  0  0  0  0  0  0  0  0  0
   23.8921    9.9492   31.0885 N   0  0  0  0  0  0  0  0  0  0  0  0
   23.8794    8.6172   31.0171 C   0  0  0  0  0  0  0  0  0  0  0  0
   25.0845    7.9576   31.1621 N   0  0  0  0  0  0  0  0  0  0  0  0
   26.3597    8.6511   31.2805 C   0  0  0  0  0  0  0  0  0  0  0  0
   27.3818    7.8441   32.0878 C   0  0  0  0  0  0  0  0  0  0  0  0
   28.6608    8.6807   32.2256 C   0  0  0  0  0  0  0  0  0  0  0  0
   29.1285    9.0362   30.9324 O   0  0  0  0  0  0  0  0  0  0  0  0
   28.1820    9.7569   30.1521 C   0  0  0  0  0  0  0  0  0  0  0  0
   26.9081    8.9797   29.9224 C   0  0  0  0  0  0  0  0  0  0  0  0
   22.8041    7.8438   30.8981 N   0  0  0  0  0  0  0  0  0  0  0  0
   21.6149    8.4822   30.8645 C   0  0  0  0  0  0  0  0  0  0  0  0
  1  2  1  0
  2  3  1  0
  2  4  1  0
  2  5  1  0
  5  6  1  0
  6 21  1  0
  6  7  1  0
  7  8  2  0
  7  9  1  0
  9 10  1  0
  9 19  2  0
 10 11  1  0
 11 18  1  0
 11 12  2  0
 12 13  1  0
 12 14  1  0
 14 15  2  0
 15 16  1  0
 15 17  1  0
 17 18  2  0
 19 20  1  0
 20 32  1  0
 20 21  2  0
 21 22  1  0
 22 23  2  0
 23 24  1  0
 23 31  1  0
 24 25  1  0
 25 30  1  0
 25 26  1  0
 26 27  1  0
 27 28  1  0
 28 29  1  0
 29 30  1  0
 31 32  2  0
M  END
