lig_p38a_2j
     RDKit          3D

 28 31  0  0  1  0  0  0  0  0999 V2000
   21.6713    8.4476   30.9021 C   0  0  0  0  0  0  0  0  0  0  0  0
   22.8800    7.8438   30.9185 N   0  0  0  0  0  0  0  0  0  0  0  0
   23.9341    8.6478   31.0394 C   0  0  0  0  0  0  0  0  0  0  0  0
   25.1577    8.0249   31.1854 N   0  0  0  0  0  0  0  0  0  0  0  0
   26.4447    8.7107   31.3199 C   0  0  0  0  0  0  0  0  0  0  0  0
   26.5919    9.5182   32.6324 C   0  0  0  0  0  0  0  0  0  0  0  0
   26.7555    8.6047   33.8564 C   0  0  0  0  0  0  0  0  0  0  0  0
   27.8891    7.7671   33.6719 O   0  0  0  0  0  0  0  0  0  0  0  0
   27.7511    6.8953   32.5566 C   0  0  0  0  0  0  0  0  0  0  0  0
   27.6071    7.7063   31.2516 C   0  0  0  0  0  0  0  0  0  0  0  0
   23.9054    9.9775   31.1038 N   0  0  0  0  0  0  0  0  0  0  0  0
   22.7105   10.6031   31.1481 C   0  0  0  0  0  0  0  0  0  0  0  0
   21.5335    9.8433   31.0394 C   0  0  0  0  0  0  0  0  0  0  0  0
   20.2555   10.5334   31.1267 C   0  0  0  0  0  0  0  0  0  0  0  0
   20.1777   11.8569   31.3610 C   0  0  0  0  0  0  0  0  0  0  0  0
   18.8105   12.5177   31.4273 C   0  0  0  0  0  0  0  0  0  0  0  0
   18.2495   12.9462   30.0777 C   0  0  0  0  0  0  0  0  0  0  0  0
   19.0798   13.0334   28.9383 C   0  0  0  0  0  0  0  0  0  0  0  0
   18.5478   13.4365   27.7108 C   0  0  0  0  0  0  0  0  0  0  0  0
   17.2920   14.0397   27.6552 C   0  0  0  0  0  0  0  0  0  0  0  0
   16.8648   14.6346   26.5146 F   0  0  0  0  0  0  0  0  0  0  0  0
   16.4870   14.0150   28.7949 C   0  0  0  0  0  0  0  0  0  0  0  0
   16.9069   13.3562   29.9597 C   0  0  0  0  0  0  0  0  0  0  0  0
   16.0265   13.1697   30.9686 F   0  0  0  0  0  0  0  0  0  0  0  0
   21.4019   12.6662   31.4946 C   0  0  0  0  0  0  0  0  0  0  0  0
   21.3478   13.8774   31.7080 O   0  0  0  0  0  0  0  0  0  0  0  0
   22.5974   12.0170   31.3555 N   0  0  0  0  0  0  0  0  0  0  0  0
   23.8576   12.7724   31.4554 C   0  0  0  0  0  0  0  0  0  0  0  0
  1 13  2  0
  1  2  1  0
  2  3  2  0
  3  4  1  0
  3 11  1  0
  4  5  1  0
  5 10  1  0
  5  6  1  0
  6  7  1  0
  7  8  1  0
  8  9  1  0
  9 10  1  0
 11 12  2  0
 12 27  1  0
 12 13  1  0
 13 14  1  0
 14 15  2  0
 15 16  1  0
 15 25  1  0
 16 17  1  0
 17 23  1  0
 17 18  2  0
 18 19  1  0
 19 20  2  0
 20 21  1  0
 20 22  1  0
 22 23  2  0
 23 24  1  0
 25 26  2  0
 25 27  1  0
 27 28  1  0
M  END
