lig_p38a_2aa
     RDKit          3D

 27 29  0  0  1  0  0  0  0  0999 V2000
   28.6124    8.3463   32.3384 O   0  0  0  0  0  0  0  0  0  0  0  0
   27.4619    7.6936   31.8394 C   0  0  0  0  0  0  0  0  0  0  0  0
   26.4008    8.6670   31.2969 C   0  0  0  0  0  0  0  0  0  0  0  0
   25.1213    7.9683   31.1870 N   0  0  0  0  0  0  0  0  0  0  0  0
   23.9033    8.6107   31.1136 C   0  0  0  0  0  0  0  0  0  0  0  0
   23.8977    9.9347   31.2584 N   0  0  0  0  0  0  0  0  0  0  0  0
   22.7137   10.5812   31.2348 C   0  0  0  0  0  0  0  0  0  0  0  0
   21.5263    9.8505   31.0392 C   0  0  0  0  0  0  0  0  0  0  0  0
   21.6453    8.4578   30.8655 C   0  0  0  0  0  0  0  0  0  0  0  0
   22.8440    7.8355   30.9097 N   0  0  0  0  0  0  0  0  0  0  0  0
   20.2530   10.5651   31.0576 C   0  0  0  0  0  0  0  0  0  0  0  0
   20.2212   11.9011   31.2605 C   0  0  0  0  0  0  0  0  0  0  0  0
   19.0709   12.6476   31.3000 O   0  0  0  0  0  0  0  0  0  0  0  0
   17.8201   12.0960   31.2214 C   0  0  0  0  0  0  0  0  0  0  0  0
   17.2788   11.3120   32.2647 C   0  0  0  0  0  0  0  0  0  0  0  0
   18.0286   11.0356   33.3589 F   0  0  0  0  0  0  0  0  0  0  0  0
   15.9545   10.8408   32.1687 C   0  0  0  0  0  0  0  0  0  0  0  0
   15.1817   11.1234   31.0263 C   0  0  0  0  0  0  0  0  0  0  0  0
   13.9278   10.6359   30.9057 F   0  0  0  0  0  0  0  0  0  0  0  0
   15.7125   11.9270   30.0046 C   0  0  0  0  0  0  0  0  0  0  0  0
   17.0244   12.4253   30.1099 C   0  0  0  0  0  0  0  0  0  0  0  0
   21.4514   12.6761   31.4345 C   0  0  0  0  0  0  0  0  0  0  0  0
   21.4038   13.8988   31.5820 O   0  0  0  0  0  0  0  0  0  0  0  0
   22.6319   11.9950   31.4180 N   0  0  0  0  0  0  0  0  0  0  0  0
   23.8986   12.7253   31.6091 C   0  0  0  0  0  0  0  0  0  0  0  0
   26.7914    9.2735   29.9316 C   0  0  0  0  0  0  0  0  0  0  0  0
   27.7970   10.2362   30.1096 O   0  0  0  0  0  0  0  0  0  0  0  0
  1  2  1  0
  2  3  1  0
  3  4  1  0
  3 26  1  0
  4  5  1  0
  5 10  2  0
  5  6  1  0
  6  7  2  0
  7 24  1  0
  7  8  1  0
  8  9  2  0
  8 11  1  0
  9 10  1  0
 11 12  2  0
 12 13  1  0
 12 22  1  0
 13 14  1  0
 14 21  1  0
 14 15  2  0
 15 16  1  0
 15 17  1  0
 17 18  2  0
 18 19  1  0
 18 20  1  0
 20 21  2  0
 22 23  2  0
 22 24  1  0
 24 25  1  0
 26 27  1  0
M  END
