lig_p38a_2l
     RDKit          3D

 29 32  0  0  1  0  0  0  0  0999 V2000
   21.6128    8.4597   30.8276 C   0  0  0  0  0  0  0  0  0  0  0  0
   22.8085    7.8357   30.8735 N   0  0  0  0  0  0  0  0  0  0  0  0
   23.8728    8.6040   31.0786 C   0  0  0  0  0  0  0  0  0  0  0  0
   25.0908    7.9572   31.1604 N   0  0  0  0  0  0  0  0  0  0  0  0
   26.3657    8.6609   31.2911 C   0  0  0  0  0  0  0  0  0  0  0  0
   27.3438    7.8761   32.1724 C   0  0  0  0  0  0  0  0  0  0  0  0
   28.6142    8.7138   32.3766 C   0  0  0  0  0  0  0  0  0  0  0  0
   29.1807    9.0361   31.1144 O   0  0  0  0  0  0  0  0  0  0  0  0
   28.3070    9.7532   30.2486 C   0  0  0  0  0  0  0  0  0  0  0  0
   27.0208    8.9760   29.9588 C   0  0  0  0  0  0  0  0  0  0  0  0
   23.8646    9.9243   31.2366 N   0  0  0  0  0  0  0  0  0  0  0  0
   22.6864   10.5776   31.2220 C   0  0  0  0  0  0  0  0  0  0  0  0
   21.4969    9.8520   31.0111 C   0  0  0  0  0  0  0  0  0  0  0  0
   20.2280   10.5693   31.0269 C   0  0  0  0  0  0  0  0  0  0  0  0
   20.1909   11.8990   31.2660 C   0  0  0  0  0  0  0  0  0  0  0  0
   19.0389   12.6491   31.2916 O   0  0  0  0  0  0  0  0  0  0  0  0
   17.7909   12.0939   31.2125 C   0  0  0  0  0  0  0  0  0  0  0  0
   17.2521   11.3126   32.2561 C   0  0  0  0  0  0  0  0  0  0  0  0
   18.0017   11.0323   33.3466 F   0  0  0  0  0  0  0  0  0  0  0  0
   15.9285   10.8364   32.1655 C   0  0  0  0  0  0  0  0  0  0  0  0
   15.1563   11.1215   31.0239 C   0  0  0  0  0  0  0  0  0  0  0  0
   13.9023   10.6339   30.9082 F   0  0  0  0  0  0  0  0  0  0  0  0
   15.6866   11.9166   29.9938 C   0  0  0  0  0  0  0  0  0  0  0  0
   16.9944   12.4197   30.1014 C   0  0  0  0  0  0  0  0  0  0  0  0
   21.4191   12.6660   31.4861 C   0  0  0  0  0  0  0  0  0  0  0  0
   21.3707   13.8769   31.7095 O   0  0  0  0  0  0  0  0  0  0  0  0
   22.6027   11.9910   31.4432 N   0  0  0  0  0  0  0  0  0  0  0  0
   23.8557   12.7375   31.6880 C   0  0  0  0  0  0  0  0  0  0  0  0
   24.1914   12.7989   33.1872 C   0  0  0  0  0  0  0  0  0  0  0  0
  1 13  2  0
  1  2  1  0
  2  3  2  0
  3  4  1  0
  3 11  1  0
  4  5  1  0
  5 10  1  0
  5  6  1  0
  6  7  1  0
  7  8  1  0
  8  9  1  0
  9 10  1  0
 11 12  2  0
 12 27  1  0
 12 13  1  0
 13 14  1  0
 14 15  2  0
 15 16  1  0
 15 25  1  0
 16 17  1  0
 17 24  1  0
 17 18  2  0
 18 19  1  0
 18 20  1  0
 20 21  2  0
 21 22  1  0
 21 23  1  0
 23 24  2  0
 25 26  2  0
 25 27  1  0
 27 28  1  0
 28 29  1  0
M  END
