lig_p38a_2o
     RDKit          3D

 33 36  0  0  1  0  0  0  0  0999 V2000
   21.6415    8.4787   30.8592 C   0  0  0  0  0  0  0  0  0  0  0  0
   22.8354    7.8456   30.9063 N   0  0  0  0  0  0  0  0  0  0  0  0
   23.9069    8.6259   31.0290 C   0  0  0  0  0  0  0  0  0  0  0  0
   25.1218    7.9835   31.1795 N   0  0  0  0  0  0  0  0  0  0  0  0
   26.4076    8.6708   31.3120 C   0  0  0  0  0  0  0  0  0  0  0  0
   26.5576    9.4593   32.6316 C   0  0  0  0  0  0  0  0  0  0  0  0
   26.7214    8.5514   33.8551 C   0  0  0  0  0  0  0  0  0  0  0  0
   27.8676    7.7349   33.6657 O   0  0  0  0  0  0  0  0  0  0  0  0
   27.7369    6.8750   32.5425 C   0  0  0  0  0  0  0  0  0  0  0  0
   27.5843    7.6870   31.2383 C   0  0  0  0  0  0  0  0  0  0  0  0
   23.9051    9.9552   31.0840 N   0  0  0  0  0  0  0  0  0  0  0  0
   22.7345   10.6088   31.1241 C   0  0  0  0  0  0  0  0  0  0  0  0
   21.5361    9.8811   30.9880 C   0  0  0  0  0  0  0  0  0  0  0  0
   20.2752   10.6099   31.0369 C   0  0  0  0  0  0  0  0  0  0  0  0
   20.2575   11.9436   31.2597 C   0  0  0  0  0  0  0  0  0  0  0  0
   19.1072   12.6958   31.3129 O   0  0  0  0  0  0  0  0  0  0  0  0
   17.8566   12.1418   31.2251 C   0  0  0  0  0  0  0  0  0  0  0  0
   17.3224   11.3422   32.2593 C   0  0  0  0  0  0  0  0  0  0  0  0
   18.0756   11.0352   33.3401 F   0  0  0  0  0  0  0  0  0  0  0  0
   16.0017   10.8606   32.1663 C   0  0  0  0  0  0  0  0  0  0  0  0
   15.2265   11.1498   31.0286 C   0  0  0  0  0  0  0  0  0  0  0  0
   13.9831   10.6363   30.9085 F   0  0  0  0  0  0  0  0  0  0  0  0
   15.7478   11.9623   30.0060 C   0  0  0  0  0  0  0  0  0  0  0  0
   17.0546   12.4721   30.1151 C   0  0  0  0  0  0  0  0  0  0  0  0
   21.5006   12.7031   31.4390 C   0  0  0  0  0  0  0  0  0  0  0  0
   21.4711   13.9151   31.6564 O   0  0  0  0  0  0  0  0  0  0  0  0
   22.6787   12.0191   31.3661 N   0  0  0  0  0  0  0  0  0  0  0  0
   23.9546   12.7430   31.6054 C   0  0  0  0  0  0  0  0  0  0  0  0
   24.2887   12.8715   33.1104 C   0  0  0  0  0  0  0  0  0  0  0  0
   26.0244   13.4424   33.4241 S   0  0  0  0  0  0  0  0  0  0  0  0
   26.1437   13.8361   34.8353 O   0  0  0  0  0  0  0  0  0  0  0  0
   26.9620   12.4517   32.8853 O   0  0  0  0  0  0  0  0  0  0  0  0
   26.1678   14.9457   32.3768 C   0  0  0  0  0  0  0  0  0  0  0  0
  1 13  2  0
  1  2  1  0
  2  3  2  0
  3  4  1  0
  3 11  1  0
  4  5  1  0
  5 10  1  0
  5  6  1  0
  6  7  1  0
  7  8  1  0
  8  9  1  0
  9 10  1  0
 11 12  2  0
 12 27  1  0
 12 13  1  0
 13 14  1  0
 14 15  2  0
 15 16  1  0
 15 25  1  0
 16 17  1  0
 17 24  1  0
 17 18  2  0
 18 19  1  0
 18 20  1  0
 20 21  2  0
 21 22  1  0
 21 23  1  0
 23 24  2  0
 25 26  2  0
 25 27  1  0
 27 28  1  0
 28 29  1  0
 29 30  1  0
 30 31  2  0
 30 32  2  0
 30 33  1  0
M  END
