lig_p38a_2m
     RDKit          3D

 30 34  0  0  1  0  0  0  0  0999 V2000
   21.6595    8.4542   30.9157 C   0  0  0  0  0  0  0  0  0  0  0  0
   22.8664    7.8429   30.9134 N   0  0  0  0  0  0  0  0  0  0  0  0
   23.9267    8.6378   31.0376 C   0  0  0  0  0  0  0  0  0  0  0  0
   25.1608    8.0160   31.1410 N   0  0  0  0  0  0  0  0  0  0  0  0
   26.4297    8.7280   31.3205 C   0  0  0  0  0  0  0  0  0  0  0  0
   26.5308    9.4550   32.6848 C   0  0  0  0  0  0  0  0  0  0  0  0
   26.7049    8.4903   33.8652 C   0  0  0  0  0  0  0  0  0  0  0  0
   27.8721    7.7133   33.6627 O   0  0  0  0  0  0  0  0  0  0  0  0
   27.7871    6.9179   32.4901 C   0  0  0  0  0  0  0  0  0  0  0  0
   27.6401    7.7944   31.2308 C   0  0  0  0  0  0  0  0  0  0  0  0
   23.8971    9.9654   31.1280 N   0  0  0  0  0  0  0  0  0  0  0  0
   22.7075   10.6006   31.1845 C   0  0  0  0  0  0  0  0  0  0  0  0
   21.5225    9.8490   31.0714 C   0  0  0  0  0  0  0  0  0  0  0  0
   20.2417   10.5508   31.1402 C   0  0  0  0  0  0  0  0  0  0  0  0
   20.1968   11.8915   31.3179 C   0  0  0  0  0  0  0  0  0  0  0  0
   19.0405   12.6338   31.3922 O   0  0  0  0  0  0  0  0  0  0  0  0
   17.7998   12.0743   31.2575 C   0  0  0  0  0  0  0  0  0  0  0  0
   17.2233   11.3069   32.2901 C   0  0  0  0  0  0  0  0  0  0  0  0
   17.9352   11.0347   33.4068 F   0  0  0  0  0  0  0  0  0  0  0  0
   15.9034   10.8342   32.1622 C   0  0  0  0  0  0  0  0  0  0  0  0
   15.1709   11.1076   30.9916 C   0  0  0  0  0  0  0  0  0  0  0  0
   13.9187   10.6240   30.8490 F   0  0  0  0  0  0  0  0  0  0  0  0
   15.7407   11.8823   29.9658 C   0  0  0  0  0  0  0  0  0  0  0  0
   17.0474   12.3810   30.1090 C   0  0  0  0  0  0  0  0  0  0  0  0
   21.4217   12.6826   31.4329 C   0  0  0  0  0  0  0  0  0  0  0  0
   21.3616   13.9076   31.5730 O   0  0  0  0  0  0  0  0  0  0  0  0
   22.6119   12.0175   31.3889 N   0  0  0  0  0  0  0  0  0  0  0  0
   23.8533   12.7519   31.4542 C   0  0  0  0  0  0  0  0  0  0  0  0
   24.0928   13.8168   32.5092 C   0  0  0  0  0  0  0  0  0  0  0  0
   24.8104   12.5076   32.6071 C   0  0  0  0  0  0  0  0  0  0  0  0
  1 13  2  0
  1  2  1  0
  2  3  2  0
  3  4  1  0
  3 11  1  0
  4  5  1  0
  5 10  1  0
  5  6  1  0
  6  7  1  0
  7  8  1  0
  8  9  1  0
  9 10  1  0
 11 12  2  0
 12 27  1  0
 12 13  1  0
 13 14  1  0
 14 15  2  0
 15 16  1  0
 15 25  1  0
 16 17  1  0
 17 24  1  0
 17 18  2  0
 18 19  1  0
 18 20  1  0
 20 21  2  0
 21 22  1  0
 21 23  1  0
 23 24  2  0
 25 26  2  0
 25 27  1  0
 27 28  1  0
 28 30  1  0
 28 29  1  0
 29 30  1  0
M  END
