lig_p38a_3flz
     RDKit          3D

 26 29  0  0  1  0  0  0  0  0999 V2000
   21.5864    8.4502   30.8699 C   0  0  0  0  0  0  0  0  0  0  0  0
   22.7790    7.8196   30.9111 N   0  0  0  0  0  0  0  0  0  0  0  0
   23.8563    8.6000   31.0735 C   0  0  0  0  0  0  0  0  0  0  0  0
   25.0680    7.9394   31.1209 N   0  0  0  0  0  0  0  0  0  0  0  0
   26.3498    8.6364   31.2552 C   0  0  0  0  0  0  0  0  0  0  0  0
   27.3598    7.8095   32.0675 C   0  0  0  0  0  0  0  0  0  0  0  0
   28.6269    8.6450   32.2940 C   0  0  0  0  0  0  0  0  0  0  0  0
   29.1362    9.0354   31.0294 O   0  0  0  0  0  0  0  0  0  0  0  0
   28.2148    9.7815   30.2467 C   0  0  0  0  0  0  0  0  0  0  0  0
   26.9435    9.0164   29.9432 C   0  0  0  0  0  0  0  0  0  0  0  0
   23.8500    9.9234   31.2215 N   0  0  0  0  0  0  0  0  0  0  0  0
   22.6747   10.5699   31.2272 C   0  0  0  0  0  0  0  0  0  0  0  0
   21.4771    9.8404   31.0534 C   0  0  0  0  0  0  0  0  0  0  0  0
   20.2110   10.5482   31.0782 C   0  0  0  0  0  0  0  0  0  0  0  0
   20.1742   11.8949   31.2905 C   0  0  0  0  0  0  0  0  0  0  0  0
   19.0189   12.6347   31.3167 O   0  0  0  0  0  0  0  0  0  0  0  0
   17.7718   12.0540   31.2715 C   0  0  0  0  0  0  0  0  0  0  0  0
   16.9517   12.3261   30.1574 C   0  0  0  0  0  0  0  0  0  0  0  0
   15.6463   11.8194   30.0904 C   0  0  0  0  0  0  0  0  0  0  0  0
   15.1584   11.0611   31.1613 C   0  0  0  0  0  0  0  0  0  0  0  0
   15.9507   10.8341   32.3006 C   0  0  0  0  0  0  0  0  0  0  0  0
   17.2640   11.3196   32.3581 C   0  0  0  0  0  0  0  0  0  0  0  0
   21.4053   12.6717   31.4466 C   0  0  0  0  0  0  0  0  0  0  0  0
   21.3561   13.8947   31.6012 O   0  0  0  0  0  0  0  0  0  0  0  0
   22.5813   11.9915   31.4252 N   0  0  0  0  0  0  0  0  0  0  0  0
   23.8591   12.7240   31.5945 C   0  0  0  0  0  0  0  0  0  0  0  0
  1 13  2  0
  1  2  1  0
  2  3  2  0
  3  4  1  0
  3 11  1  0
  4  5  1  0
  5 10  1  0
  5  6  1  0
  6  7  1  0
  7  8  1  0
  8  9  1  0
  9 10  1  0
 11 12  2  0
 12 25  1  0
 12 13  1  0
 13 14  1  0
 14 15  2  0
 15 16  1  0
 15 23  1  0
 16 17  1  0
 17 22  1  0
 17 18  2  0
 18 19  1  0
 19 20  2  0
 20 21  1  0
 21 22  2  0
 23 24  2  0
 23 25  1  0
 25 26  1  0
M  END
