lig_p38a_2gg
     RDKit          3D

 30 33  0  0  1  0  0  0  0  0999 V2000
   21.6230    8.4868   30.8137 C   0  0  0  0  0  0  0  0  0  0  0  0
   22.8310    7.8784   30.8435 N   0  0  0  0  0  0  0  0  0  0  0  0
   23.8879    8.6796   30.9851 C   0  0  0  0  0  0  0  0  0  0  0  0
   25.1123    8.0614   31.1424 N   0  0  0  0  0  0  0  0  0  0  0  0
   26.4130    8.7253   31.2906 C   0  0  0  0  0  0  0  0  0  0  0  0
   26.5068    9.7062   32.4844 C   0  0  0  0  0  0  0  0  0  0  0  0
   26.1596    9.0571   33.8255 C   0  0  0  0  0  0  0  0  0  0  0  0
   27.4300    7.7973   34.2186 S   0  0  0  0  0  0  0  0  0  0  0  0
   26.9419    6.9589   35.3228 O   0  0  0  0  0  0  0  0  0  0  0  0
   28.7287    8.4764   34.3274 O   0  0  0  0  0  0  0  0  0  0  0  0
   27.4348    6.8065   32.6717 C   0  0  0  0  0  0  0  0  0  0  0  0
   27.5291    7.6730   31.4007 C   0  0  0  0  0  0  0  0  0  0  0  0
   23.8637   10.0033   31.0703 N   0  0  0  0  0  0  0  0  0  0  0  0
   22.6741   10.6300   31.1078 C   0  0  0  0  0  0  0  0  0  0  0  0
   21.4882    9.8821   30.9726 C   0  0  0  0  0  0  0  0  0  0  0  0
   20.2127   10.5866   31.0493 C   0  0  0  0  0  0  0  0  0  0  0  0
   20.1752   11.9197   31.2773 C   0  0  0  0  0  0  0  0  0  0  0  0
   19.0207   12.6569   31.3664 O   0  0  0  0  0  0  0  0  0  0  0  0
   17.7823   12.0918   31.2494 C   0  0  0  0  0  0  0  0  0  0  0  0
   17.2338   11.3102   32.2872 C   0  0  0  0  0  0  0  0  0  0  0  0
   17.9702   11.0356   33.3885 F   0  0  0  0  0  0  0  0  0  0  0  0
   15.9163   10.8262   32.1779 C   0  0  0  0  0  0  0  0  0  0  0  0
   15.1602   11.1049   31.0239 C   0  0  0  0  0  0  0  0  0  0  0  0
   13.9070   10.6197   30.8981 F   0  0  0  0  0  0  0  0  0  0  0  0
   15.7057   11.8908   29.9937 C   0  0  0  0  0  0  0  0  0  0  0  0
   17.0100   12.3998   30.1143 C   0  0  0  0  0  0  0  0  0  0  0  0
   21.4021   12.7022   31.4303 C   0  0  0  0  0  0  0  0  0  0  0  0
   21.3487   13.9154   31.6371 O   0  0  0  0  0  0  0  0  0  0  0  0
   22.5854   12.0370   31.3420 N   0  0  0  0  0  0  0  0  0  0  0  0
   23.8493   12.7686   31.5402 C   0  0  0  0  0  0  0  0  0  0  0  0
  1 15  2  0
  1  2  1  0
  2  3  2  0
  3  4  1  0
  3 13  1  0
  4  5  1  0
  5 12  1  0
  5  6  1  0
  6  7  1  0
  7  8  1  0
  8  9  2  0
  8 10  2  0
  8 11  1  0
 11 12  1  0
 13 14  2  0
 14 29  1  0
 14 15  1  0
 15 16  1  0
 16 17  2  0
 17 18  1  0
 17 27  1  0
 18 19  1  0
 19 26  1  0
 19 20  2  0
 20 21  1  0
 20 22  1  0
 22 23  2  0
 23 24  1  0
 23 25  1  0
 25 26  2  0
 27 28  2  0
 27 29  1  0
 29 30  1  0
M  END
