lig_p38a_2e
     RDKit          3D

 27 30  0  0  1  0  0  0  0  0999 V2000
   21.5982    8.4569   30.8934 C   0  0  0  0  0  0  0  0  0  0  0  0
   22.7968    7.8362   30.9120 N   0  0  0  0  0  0  0  0  0  0  0  0
   23.8655    8.6115   31.0691 C   0  0  0  0  0  0  0  0  0  0  0  0
   25.0825    7.9645   31.1657 N   0  0  0  0  0  0  0  0  0  0  0  0
   26.3564    8.6619   31.2849 C   0  0  0  0  0  0  0  0  0  0  0  0
   27.3839    7.8453   32.0751 C   0  0  0  0  0  0  0  0  0  0  0  0
   28.6671    8.6756   32.2100 C   0  0  0  0  0  0  0  0  0  0  0  0
   29.1287    9.0362   30.9161 O   0  0  0  0  0  0  0  0  0  0  0  0
   28.1822    9.7653   30.1440 C   0  0  0  0  0  0  0  0  0  0  0  0
   26.8961    9.0023   29.9254 C   0  0  0  0  0  0  0  0  0  0  0  0
   23.8610    9.9372   31.1806 N   0  0  0  0  0  0  0  0  0  0  0  0
   22.6784   10.5847   31.1869 C   0  0  0  0  0  0  0  0  0  0  0  0
   21.4837    9.8509   31.0519 C   0  0  0  0  0  0  0  0  0  0  0  0
   20.2130   10.5627   31.1183 C   0  0  0  0  0  0  0  0  0  0  0  0
   20.1834   11.8997   31.3129 C   0  0  0  0  0  0  0  0  0  0  0  0
   19.0286   12.6369   31.4204 O   0  0  0  0  0  0  0  0  0  0  0  0
   17.7890   12.0762   31.2844 C   0  0  0  0  0  0  0  0  0  0  0  0
   17.0544   12.3308   30.1101 C   0  0  0  0  0  0  0  0  0  0  0  0
   15.7449   11.8360   29.9775 C   0  0  0  0  0  0  0  0  0  0  0  0
   15.1597   11.1110   31.0318 C   0  0  0  0  0  0  0  0  0  0  0  0
   13.9026   10.6356   30.9034 F   0  0  0  0  0  0  0  0  0  0  0  0
   15.8805   10.8805   32.2182 C   0  0  0  0  0  0  0  0  0  0  0  0
   17.1998   11.3562   32.3442 C   0  0  0  0  0  0  0  0  0  0  0  0
   21.4187   12.6805   31.4227 C   0  0  0  0  0  0  0  0  0  0  0  0
   21.3747   13.9021   31.5759 O   0  0  0  0  0  0  0  0  0  0  0  0
   22.5996   12.0028   31.3543 N   0  0  0  0  0  0  0  0  0  0  0  0
   23.8730   12.7365   31.4597 C   0  0  0  0  0  0  0  0  0  0  0  0
  1 13  2  0
  1  2  1  0
  2  3  2  0
  3  4  1  0
  3 11  1  0
  4  5  1  0
  5 10  1  0
  5  6  1  0
  6  7  1  0
  7  8  1  0
  8  9  1  0
  9 10  1  0
 11 12  2  0
 12 26  1  0
 12 13  1  0
 13 14  1  0
 14 15  2  0
 15 16  1  0
 15 24  1  0
 16 17  1  0
 17 23  1  0
 17 18  2  0
 18 19  1  0
 19 20  2  0
 20 21  1  0
 20 22  1  0
 22 23  2  0
 24 25  2  0
 24 26  1  0
 26 27  1  0
M  END
