lig_ejm_55
     RDKit          3D

 22 23  0  0  1  0  0  0  0  0999 V2000
   -5.3523   -3.7030  -16.2338 C   0  0  0  0  0  0  0  0  0  0  0  0
   -6.7119   -3.5535  -15.9048 C   0  0  0  0  0  0  0  0  0  0  0  0
   -7.4825   -4.6708  -15.5247 C   0  0  0  0  0  0  0  0  0  0  0  0
   -6.8919   -5.9582  -15.4782 C   0  0  0  0  0  0  0  0  0  0  0  0
   -5.5305   -6.1061  -15.8489 C   0  0  0  0  0  0  0  0  0  0  0  0
   -4.7661   -4.9804  -16.2122 C   0  0  0  0  0  0  0  0  0  0  0  0
   -4.7552   -7.6474  -15.8742 Cl  0  0  0  0  0  0  0  0  0  0  0  0
   -7.7009   -7.1391  -15.0337 C   0  0  0  0  0  0  0  0  0  0  0  0
   -8.1107   -7.2067  -13.8751 O   0  0  0  0  0  0  0  0  0  0  0  0
   -7.9036   -8.0552  -15.9984 N   0  0  0  0  0  0  0  0  0  0  0  0
   -8.7248   -9.2112  -15.9967 C   0  0  0  0  0  0  0  0  0  0  0  0
   -9.5797   -9.5832  -14.9391 C   0  0  0  0  0  0  0  0  0  0  0  0
  -10.3845  -10.7211  -15.1098 C   0  0  0  0  0  0  0  0  0  0  0  0
  -10.3622  -11.4944  -16.2168 N   0  0  0  0  0  0  0  0  0  0  0  0
   -9.5407  -11.1586  -17.2369 C   0  0  0  0  0  0  0  0  0  0  0  0
   -8.7124  -10.0125  -17.1561 C   0  0  0  0  0  0  0  0  0  0  0  0
   -9.5636  -11.9570  -18.4109 N   0  0  0  0  0  0  0  0  0  0  0  0
   -8.6548  -12.0190  -19.4596 C   0  0  0  0  0  0  0  0  0  0  0  0
   -7.5887  -11.4105  -19.5887 O   0  0  0  0  0  0  0  0  0  0  0  0
   -9.1329  -12.8952  -20.3535 O   0  0  0  0  0  0  0  0  0  0  0  0
   -8.4378  -13.1280  -21.5675 C   0  0  0  0  0  0  0  0  0  0  0  0
   -9.1577   -4.4222  -15.1602 Cl  0  0  0  0  0  0  0  0  0  0  0  0
  1  6  2  0
  1  2  1  0
  2  3  2  0
  3  4  1  0
  3 22  1  0
  4  5  2  0
  4  8  1  0
  5  6  1  0
  5  7  1  0
  8  9  2  0
  8 10  1  0
 10 11  1  0
 11 16  1  0
 11 12  2  0
 12 13  1  0
 13 14  2  0
 14 15  1  0
 15 16  2  0
 15 17  1  0
 17 18  1  0
 18 19  2  0
 18 20  1  0
 20 21  1  0
M  END
