lig_jmc_27
     RDKit          3D

 24 26  0  0  1  0  0  0  0  0999 V2000
   -5.3587   -3.6550  -16.2176 C   0  0  0  0  0  0  0  0  0  0  0  0
   -4.7652   -4.9283  -16.2021 C   0  0  0  0  0  0  0  0  0  0  0  0
   -5.5260   -6.0594  -15.8435 C   0  0  0  0  0  0  0  0  0  0  0  0
   -6.8922   -5.9214  -15.4825 C   0  0  0  0  0  0  0  0  0  0  0  0
   -7.4850   -4.6345  -15.5167 C   0  0  0  0  0  0  0  0  0  0  0  0
   -6.7156   -3.5162  -15.8818 C   0  0  0  0  0  0  0  0  0  0  0  0
   -9.1595   -4.3895  -15.1543 Cl  0  0  0  0  0  0  0  0  0  0  0  0
   -7.7022   -7.1116  -15.0517 C   0  0  0  0  0  0  0  0  0  0  0  0
   -8.1073   -7.1971  -13.8946 O   0  0  0  0  0  0  0  0  0  0  0  0
   -7.9076   -8.0155  -16.0261 N   0  0  0  0  0  0  0  0  0  0  0  0
   -8.7271   -9.1743  -16.0305 C   0  0  0  0  0  0  0  0  0  0  0  0
   -9.5652   -9.5760  -14.9683 C   0  0  0  0  0  0  0  0  0  0  0  0
  -10.3625  -10.7185  -15.1467 C   0  0  0  0  0  0  0  0  0  0  0  0
  -10.3445  -11.4710  -16.2676 N   0  0  0  0  0  0  0  0  0  0  0  0
   -9.5311  -11.1137  -17.2873 C   0  0  0  0  0  0  0  0  0  0  0  0
   -8.7251   -9.9523  -17.2029 C   0  0  0  0  0  0  0  0  0  0  0  0
   -9.5482  -11.9136  -18.4626 N   0  0  0  0  0  0  0  0  0  0  0  0
   -8.6240  -12.0419  -19.4379 C   0  0  0  0  0  0  0  0  0  0  0  0
   -7.5640  -11.4156  -19.4881 O   0  0  0  0  0  0  0  0  0  0  0  0
   -9.0244  -13.0321  -20.4844 C   0  0  2  0  0  0  0  0  0  0  0  0
   -7.9862  -13.8559  -21.2365 C   0  0  1  0  0  0  0  0  0  0  0  0
   -8.6884  -12.7163  -21.9259 C   0  0  0  0  0  0  0  0  0  0  0  0
   -6.2504  -13.7351  -21.0529 Cl  0  0  0  0  0  0  0  0  0  0  0  0
   -4.7416   -7.5955  -15.8535 Cl  0  0  0  0  0  0  0  0  0  0  0  0
  1  6  2  0
  1  2  1  0
  2  3  2  0
  3  4  1  0
  3 24  1  0
  4  5  2  0
  4  8  1  0
  5  6  1  0
  5  7  1  0
  8  9  2  0
  8 10  1  0
 10 11  1  0
 11 16  1  0
 11 12  2  0
 12 13  1  0
 13 14  2  0
 14 15  1  0
 15 16  2  0
 15 17  1  0
 17 18  1  0
 18 19  2  0
 20 18  1  1
 20 22  1  0
 20 21  1  0
 21 22  1  0
 21 23  1  1
M  END
