4g
     RDKit          3D

 36 38  0  0  1  0  0  0  0  0999 V2000
   66.4599   42.9655   46.0419 N   0  0  0  0  0  0  0  0  0  0  0  0
   67.4105   42.4952   46.8658 N   0  0  0  0  0  0  0  0  0  0  0  0
   67.1564   42.3084   48.1949 C   0  0  0  0  0  0  0  0  0  0  0  0
   65.8482   42.5410   48.6895 C   0  0  0  0  0  0  0  0  0  0  0  0
   64.9007   43.0676   47.8622 N   0  0  0  0  0  0  0  0  0  0  0  0
   65.2529   43.2650   46.5726 C   0  0  0  0  0  0  0  0  0  0  0  0
   70.6140   41.2229   50.5608 N   0  0  0  0  0  0  0  0  0  0  0  0
   69.6935   42.1069   51.0220 C   0  0  0  0  0  0  0  0  0  0  0  0
   68.5713   42.4859   50.2804 C   0  0  0  0  0  0  0  0  0  0  0  0
   68.3525   41.9267   49.0123 C   0  0  0  0  0  0  0  0  0  0  0  0
   69.3141   41.0226   48.5304 C   0  0  0  0  0  0  0  0  0  0  0  0
   70.4143   40.6934   49.3269 C   0  0  0  0  0  0  0  0  0  0  0  0
   64.4246   41.6171   52.6499 C   0  0  0  0  0  0  0  0  0  0  0  0
   63.8907   42.6975   51.9581 C   0  0  0  0  0  0  0  0  0  0  0  0
   64.3550   42.9901   50.6786 C   0  0  0  0  0  0  0  0  0  0  0  0
   65.3598   42.2179   50.0734 C   0  0  0  0  0  0  0  0  0  0  0  0
   65.8598   41.1161   50.7836 C   0  0  0  0  0  0  0  0  0  0  0  0
   65.4101   40.8284   52.0683 C   0  0  0  0  0  0  0  0  0  0  0  0
   64.3061   43.8392   45.7361 N   0  0  0  0  0  0  0  0  0  0  0  0
   71.4651   39.7129   48.8397 C   0  0  0  0  0  0  0  0  0  0  0  0
   69.9525   42.6768   52.4033 C   0  0  0  0  0  0  0  0  0  0  0  0
   67.8764   43.2103   50.6789 H   0  0  0  0  0  0  0  0  0  0  0  0
   69.1975   40.5717   47.5552 H   0  0  0  0  0  0  0  0  0  0  0  0
   64.0695   41.3818   53.6417 H   0  0  0  0  0  0  0  0  0  0  0  0
   63.1236   43.3069   52.4139 H   0  0  0  0  0  0  0  0  0  0  0  0
   63.9405   43.8477   50.1695 H   0  0  0  0  0  0  0  0  0  0  0  0
   66.6014   40.4654   50.3421 H   0  0  0  0  0  0  0  0  0  0  0  0
   65.8086   39.9773   52.6039 H   0  0  0  0  0  0  0  0  0  0  0  0
   63.4911   44.2777   46.1549 H   0  0  0  0  0  0  0  0  0  0  0  0
   64.5378   43.9950   44.7560 H   0  0  0  0  0  0  0  0  0  0  0  0
   71.0085   38.9158   48.2504 H   0  0  0  0  0  0  0  0  0  0  0  0
   72.1913   40.2252   48.2107 H   0  0  0  0  0  0  0  0  0  0  0  0
   71.9999   39.2478   49.6688 H   0  0  0  0  0  0  0  0  0  0  0  0
   69.2321   43.4544   52.6595 H   0  0  0  0  0  0  0  0  0  0  0  0
   70.9503   43.1139   52.4621 H   0  0  0  0  0  0  0  0  0  0  0  0
   69.8740   41.8910   53.1552 H   0  0  0  0  0  0  0  0  0  0  0  0
  1  2  2  0
  1  6  1  0
  2  3  1  0
  3  4  2  0
  3 10  1  0
  4  5  1  0
  4 16  1  0
  5  6  2  0
  6 19  1  0
  7  8  2  0
  7 12  1  0
  8  9  1  0
  8 21  1  0
  9 10  2  0
  9 22  1  0
 10 11  1  0
 11 12  2  0
 11 23  1  0
 12 20  1  0
 13 14  2  0
 13 18  1  0
 13 24  1  0
 14 15  1  0
 14 25  1  0
 15 16  2  0
 15 26  1  0
 16 17  1  0
 17 18  2  0
 17 27  1  0
 18 28  1  0
 19 29  1  0
 19 30  1  0
 20 31  1  0
 20 32  1  0
 20 33  1  0
 21 34  1  0
 21 35  1  0
 21 36  1  0
M  END
