4j
     RDKit          3D

 36 38  0  0  1  0  0  0  0  0999 V2000
   66.4756   42.9674   46.0408 N   0  0  0  0  0  0  0  0  0  0  0  0
   67.4256   42.5089   46.8719 N   0  0  0  0  0  0  0  0  0  0  0  0
   67.1642   42.3132   48.1999 C   0  0  0  0  0  0  0  0  0  0  0  0
   65.8474   42.5241   48.6846 C   0  0  0  0  0  0  0  0  0  0  0  0
   64.9035   43.0415   47.8498 N   0  0  0  0  0  0  0  0  0  0  0  0
   65.2609   43.2459   46.5655 C   0  0  0  0  0  0  0  0  0  0  0  0
   70.6307   41.2352   50.5626 N   0  0  0  0  0  0  0  0  0  0  0  0
   69.7002   42.1036   51.0339 C   0  0  0  0  0  0  0  0  0  0  0  0
   68.5777   42.4812   50.2930 C   0  0  0  0  0  0  0  0  0  0  0  0
   68.3653   41.9397   49.0155 C   0  0  0  0  0  0  0  0  0  0  0  0
   69.3371   41.0555   48.5232 C   0  0  0  0  0  0  0  0  0  0  0  0
   70.4371   40.7240   49.3197 C   0  0  0  0  0  0  0  0  0  0  0  0
   64.4053   41.6422   52.6677 C   0  0  0  0  0  0  0  0  0  0  0  0
   65.4772   40.9321   52.1358 C   0  0  0  0  0  0  0  0  0  0  0  0
   65.9061   41.1776   50.8365 C   0  0  0  0  0  0  0  0  0  0  0  0
   65.3394   42.2005   50.0627 C   0  0  0  0  0  0  0  0  0  0  0  0
   64.2516   42.8970   50.6177 C   0  0  0  0  0  0  0  0  0  0  0  0
   63.7825   42.6223   51.9016 C   0  0  0  0  0  0  0  0  0  0  0  0
   64.3069   43.7955   45.7254 N   0  0  0  0  0  0  0  0  0  0  0  0
   71.4902   39.7609   48.8141 C   0  0  0  0  0  0  0  0  0  0  0  0
   69.9360   42.6470   52.4306 C   0  0  0  0  0  0  0  0  0  0  0  0
   67.8640   43.1716   50.7130 H   0  0  0  0  0  0  0  0  0  0  0  0
   69.2280   40.6137   47.5439 H   0  0  0  0  0  0  0  0  0  0  0  0
   64.0763   41.4449   53.6770 H   0  0  0  0  0  0  0  0  0  0  0  0
   66.1384   40.0344   52.8972 F   0  0  0  0  0  0  0  0  0  0  0  0
   66.7120   40.5698   50.4529 H   0  0  0  0  0  0  0  0  0  0  0  0
   63.7709   43.6957   50.0719 H   0  0  0  0  0  0  0  0  0  0  0  0
   62.9553   43.1859   52.3068 H   0  0  0  0  0  0  0  0  0  0  0  0
   63.4689   44.2055   46.1333 H   0  0  0  0  0  0  0  0  0  0  0  0
   64.5148   43.8972   44.7333 H   0  0  0  0  0  0  0  0  0  0  0  0
   71.0316   38.9374   48.2610 H   0  0  0  0  0  0  0  0  0  0  0  0
   72.1631   40.2930   48.1400 H   0  0  0  0  0  0  0  0  0  0  0  0
   72.0780   39.3296   49.6304 H   0  0  0  0  0  0  0  0  0  0  0  0
   69.2673   43.4798   52.6529 H   0  0  0  0  0  0  0  0  0  0  0  0
   70.9604   43.0062   52.5422 H   0  0  0  0  0  0  0  0  0  0  0  0
   69.7576   41.8668   53.1717 H   0  0  0  0  0  0  0  0  0  0  0  0
  1  2  2  0
  1  6  1  0
  2  3  1  0
  3  4  2  0
  3 10  1  0
  4  5  1  0
  4 16  1  0
  5  6  2  0
  6 19  1  0
  7  8  2  0
  7 12  1  0
  8  9  1  0
  8 21  1  0
  9 10  2  0
  9 22  1  0
 10 11  1  0
 11 12  2  0
 11 23  1  0
 12 20  1  0
 13 14  2  0
 13 18  1  0
 13 24  1  0
 14 15  1  0
 14 25  1  0
 15 16  2  0
 15 26  1  0
 16 17  1  0
 17 18  2  0
 17 27  1  0
 18 28  1  0
 19 29  1  0
 19 30  1  0
 20 31  1  0
 20 32  1  0
 20 33  1  0
 21 34  1  0
 21 35  1  0
 21 36  1  0
M  END
