4k
     RDKit          3D

 36 38  0  0  1  0  0  0  0  0999 V2000
   66.4603   42.9758   46.0331 N   0  0  0  0  0  0  0  0  0  0  0  0
   67.4190   42.5247   46.8606 N   0  0  0  0  0  0  0  0  0  0  0  0
   67.1611   42.3303   48.1885 C   0  0  0  0  0  0  0  0  0  0  0  0
   65.8518   42.5462   48.6821 C   0  0  0  0  0  0  0  0  0  0  0  0
   64.8983   43.0530   47.8507 N   0  0  0  0  0  0  0  0  0  0  0  0
   65.2439   43.2493   46.5594 C   0  0  0  0  0  0  0  0  0  0  0  0
   70.5774   41.1911   50.5820 N   0  0  0  0  0  0  0  0  0  0  0  0
   69.7196   42.1556   50.9990 C   0  0  0  0  0  0  0  0  0  0  0  0
   68.5999   42.5396   50.2561 C   0  0  0  0  0  0  0  0  0  0  0  0
   68.3519   41.9469   49.0100 C   0  0  0  0  0  0  0  0  0  0  0  0
   69.2623   40.9802   48.5634 C   0  0  0  0  0  0  0  0  0  0  0  0
   70.3351   40.6009   49.3798 C   0  0  0  0  0  0  0  0  0  0  0  0
   64.4633   41.6366   52.6602 C   0  0  0  0  0  0  0  0  0  0  0  0
   63.8984   42.6926   51.9547 C   0  0  0  0  0  0  0  0  0  0  0  0
   64.3511   42.9790   50.6706 C   0  0  0  0  0  0  0  0  0  0  0  0
   65.3700   42.2240   50.0692 C   0  0  0  0  0  0  0  0  0  0  0  0
   65.8943   41.1409   50.7901 C   0  0  0  0  0  0  0  0  0  0  0  0
   65.4604   40.8600   52.0816 C   0  0  0  0  0  0  0  0  0  0  0  0
   64.2762   43.7806   45.7165 N   0  0  0  0  0  0  0  0  0  0  0  0
   71.2623   39.4635   48.9561 C   0  0  0  0  0  0  0  0  0  0  0  0
   70.0495   42.8023   52.3315 C   0  0  0  0  0  0  0  0  0  0  0  0
   67.9200   43.2807   50.6414 H   0  0  0  0  0  0  0  0  0  0  0  0
   69.1107   40.4947   47.6109 H   0  0  0  0  0  0  0  0  0  0  0  0
   64.1223   41.4138   53.6607 H   0  0  0  0  0  0  0  0  0  0  0  0
   63.1227   43.2955   52.4055 H   0  0  0  0  0  0  0  0  0  0  0  0
   63.9202   43.8248   50.1557 H   0  0  0  0  0  0  0  0  0  0  0  0
   66.6444   40.4986   50.3529 H   0  0  0  0  0  0  0  0  0  0  0  0
   65.8899   40.0342   52.6295 H   0  0  0  0  0  0  0  0  0  0  0  0
   63.4432   44.1885   46.1307 H   0  0  0  0  0  0  0  0  0  0  0  0
   64.4891   43.9212   44.7295 H   0  0  0  0  0  0  0  0  0  0  0  0
   72.2731   39.2686   49.8065 F   0  0  0  0  0  0  0  0  0  0  0  0
   70.5591   38.3336   48.8800 F   0  0  0  0  0  0  0  0  0  0  0  0
   71.7668   39.7286   47.7524 F   0  0  0  0  0  0  0  0  0  0  0  0
   69.2939   43.5335   52.6260 H   0  0  0  0  0  0  0  0  0  0  0  0
   71.0084   43.3197   52.2731 H   0  0  0  0  0  0  0  0  0  0  0  0
   70.1183   42.0485   53.1178 H   0  0  0  0  0  0  0  0  0  0  0  0
  1  2  2  0
  1  6  1  0
  2  3  1  0
  3  4  2  0
  3 10  1  0
  4  5  1  0
  4 16  1  0
  5  6  2  0
  6 19  1  0
  7  8  2  0
  7 12  1  0
  8  9  1  0
  8 21  1  0
  9 10  2  0
  9 22  1  0
 10 11  1  0
 11 12  2  0
 11 23  1  0
 12 20  1  0
 13 14  2  0
 13 18  1  0
 13 24  1  0
 14 15  1  0
 14 25  1  0
 15 16  2  0
 15 26  1  0
 16 17  1  0
 17 18  2  0
 17 27  1  0
 18 28  1  0
 19 29  1  0
 19 30  1  0
 20 31  1  0
 20 32  1  0
 20 33  1  0
 21 34  1  0
 21 35  1  0
 21 36  1  0
M  END
