4r
     RDKit          3D

 33 35  0  0  1  0  0  0  0  0999 V2000
   66.2809   43.1458   45.9651 N   0  0  0  0  0  0  0  0  0  0  0  0
   67.2540   42.5144   46.6453 N   0  0  0  0  0  0  0  0  0  0  0  0
   67.1095   42.2456   47.9764 C   0  0  0  0  0  0  0  0  0  0  0  0
   65.8968   42.5780   48.6273 C   0  0  0  0  0  0  0  0  0  0  0  0
   64.9231   43.2411   47.9440 N   0  0  0  0  0  0  0  0  0  0  0  0
   65.1638   43.5089   46.6396 C   0  0  0  0  0  0  0  0  0  0  0  0
   70.4789   40.3945   49.9457 N   0  0  0  0  0  0  0  0  0  0  0  0
   69.8513   41.4654   50.4913 C   0  0  0  0  0  0  0  0  0  0  0  0
   68.7639   42.0829   49.8721 C   0  0  0  0  0  0  0  0  0  0  0  0
   68.3027   41.6252   48.6323 C   0  0  0  0  0  0  0  0  0  0  0  0
   68.9829   40.5475   48.0511 C   0  0  0  0  0  0  0  0  0  0  0  0
   70.0346   39.9344   48.7441 C   0  0  0  0  0  0  0  0  0  0  0  0
   64.9563   41.5766   52.7091 C   0  0  0  0  0  0  0  0  0  0  0  0
   64.4677   42.7566   52.1606 C   0  0  0  0  0  0  0  0  0  0  0  0
   64.7748   43.0835   50.8397 C   0  0  0  0  0  0  0  0  0  0  0  0
   65.5459   42.2226   50.0426 C   0  0  0  0  0  0  0  0  0  0  0  0
   65.9653   41.0079   50.6021 C   0  0  0  0  0  0  0  0  0  0  0  0
   65.7088   40.7066   51.9333 C   0  0  0  0  0  0  0  0  0  0  0  0
   64.2014   44.2316   45.9470 N   0  0  0  0  0  0  0  0  0  0  0  0
   70.7012   38.6780   48.1877 C   0  0  0  0  0  0  0  0  0  0  0  0
   70.4106   42.0690   52.0095 Cl  0  0  0  0  0  0  0  0  0  0  0  0
   64.7094   41.2686   54.0023 F   0  0  0  0  0  0  0  0  0  0  0  0
   71.7337   38.2616   48.9256 F   0  0  0  0  0  0  0  0  0  0  0  0
   69.8054   37.6926   48.1314 F   0  0  0  0  0  0  0  0  0  0  0  0
   71.1356   38.9242   46.9544 F   0  0  0  0  0  0  0  0  0  0  0  0
   68.2605   42.8989   50.3574 H   0  0  0  0  0  0  0  0  0  0  0  0
   68.6631   40.1546   47.0972 H   0  0  0  0  0  0  0  0  0  0  0  0
   63.8792   43.4303   52.7674 H   0  0  0  0  0  0  0  0  0  0  0  0
   64.4209   44.0229   50.4437 H   0  0  0  0  0  0  0  0  0  0  0  0
   66.5178   40.2933   50.0128 H   0  0  0  0  0  0  0  0  0  0  0  0
   66.0772   39.7863   52.3606 H   0  0  0  0  0  0  0  0  0  0  0  0
   63.5046   44.7410   46.4820 H   0  0  0  0  0  0  0  0  0  0  0  0
   64.3741   44.4672   44.9727 H   0  0  0  0  0  0  0  0  0  0  0  0
  1  2  2  0
  1  6  1  0
  2  3  1  0
  3  4  2  0
  3 10  1  0
  4  5  1  0
  4 16  1  0
  5  6  2  0
  6 19  1  0
  7  8  2  0
  7 12  1  0
  8  9  1  0
  8 21  1  0
  9 10  2  0
  9 26  1  0
 10 11  1  0
 11 12  2  0
 11 27  1  0
 12 20  1  0
 13 14  2  0
 13 18  1  0
 13 22  1  0
 14 15  1  0
 14 28  1  0
 15 16  2  0
 15 29  1  0
 16 17  1  0
 17 18  2  0
 17 30  1  0
 18 31  1  0
 19 32  1  0
 19 33  1  0
 20 23  1  0
 20 24  1  0
 20 25  1  0
M  END
