lig_4
     RDKit          3D

 29 31  0  0  1  0  0  0  0  0999 V2000
   16.0813  -12.5792   19.7388 O   0  0  0  0  0  0  0  0  0  0  0  0
   16.6126  -11.7056   20.4202 C   0  0  0  0  0  0  0  0  0  0  0  0
   18.0272  -11.9090   21.0078 C   0  0  2  0  0  0  0  0  0  0  0  0
   19.0796  -11.7640   19.8921 C   0  0  0  0  0  0  0  0  0  0  0  0
   20.1481  -12.7944   20.2029 C   0  0  0  0  0  0  0  0  0  0  0  0
   19.4605  -13.8615   21.0476 C   0  0  0  0  0  0  0  0  0  0  0  0
   18.2485  -13.2447   21.5981 N   0  0  0  0  0  0  0  0  0  0  0  0
   17.4774  -13.7810   22.5761 C   0  0  0  0  0  0  0  0  0  0  0  0
   17.7550  -15.2107   23.1042 C   0  0  2  0  0  0  0  0  0  0  0  0
   16.5295  -16.0141   23.0682 N   0  0  0  0  0  0  0  0  0  0  0  0
   18.3197  -15.2093   24.5401 C   0  0  0  0  0  0  0  0  0  0  0  0
   19.6582  -14.5064   24.7314 C   0  0  0  0  0  0  0  0  0  0  0  0
   20.8561  -15.0593   24.2221 C   0  0  0  0  0  0  0  0  0  0  0  0
   22.0760  -14.3734   24.3901 C   0  0  0  0  0  0  0  0  0  0  0  0
   22.1131  -13.1387   25.0700 C   0  0  0  0  0  0  0  0  0  0  0  0
   20.9229  -12.6060   25.6029 C   0  0  0  0  0  0  0  0  0  0  0  0
   19.7064  -13.2933   25.4446 C   0  0  0  0  0  0  0  0  0  0  0  0
   16.5387  -13.1559   23.0720 O   0  0  0  0  0  0  0  0  0  0  0  0
   16.0188  -10.5335   20.6726 N   0  0  0  0  0  0  0  0  0  0  0  0
   14.6866  -10.1542   20.2347 C   0  0  0  0  0  0  0  0  0  0  0  0
   13.5928  -10.4596   21.2460 C   0  0  0  0  0  0  0  0  0  0  0  0
   12.9320  -11.7026   21.2225 C   0  0  0  0  0  0  0  0  0  0  0  0
   11.9011  -11.9411   22.1299 C   0  0  0  0  0  0  0  0  0  0  0  0
   11.5392  -10.9358   23.0555 C   0  0  0  0  0  0  0  0  0  0  0  0
   10.6377  -11.1924   24.0664 C   0  0  0  0  0  0  0  0  0  0  0  0
   10.6374  -10.5631   25.2008 N   0  0  0  0  0  0  0  0  0  0  0  0
    9.8379  -12.1636   23.9473 N   0  0  0  0  0  0  0  0  0  0  0  0
   12.1808   -9.6910   23.0690 C   0  0  0  0  0  0  0  0  0  0  0  0
   13.2145   -9.4639   22.1661 C   0  0  0  0  0  0  0  0  0  0  0  0
  1  2  2  0
  3  2  1  6
  2 19  1  0
  3  7  1  0
  3  4  1  0
  4  5  1  0
  5  6  1  0
  6  7  1  0
  7  8  1  0
  8  9  1  0
  8 18  2  0
  9 10  1  1
  9 11  1  0
 11 12  1  0
 12 17  1  0
 12 13  2  0
 13 14  1  0
 14 15  2  0
 15 16  1  0
 16 17  2  0
 19 20  1  0
 20 21  1  0
 21 29  1  0
 21 22  2  0
 22 23  1  0
 23 24  2  0
 24 25  1  0
 24 28  1  0
 25 26  1  0
 25 27  2  3
 28 29  2  0
M  CHG  1  27   1
M  END
