lig_2c
     RDKit          3D

 27 29  0  0  1  0  0  0  0  0999 V2000
   16.4822  -13.1442   23.0591 O   0  0  0  0  0  0  0  0  0  0  0  0
   17.4420  -13.7631   22.5926 C   0  0  0  0  0  0  0  0  0  0  0  0
   18.2183  -13.2342   21.6129 N   0  0  0  0  0  0  0  0  0  0  0  0
   19.4399  -13.8509   21.0886 C   0  0  0  0  0  0  0  0  0  0  0  0
   20.1378  -12.7908   20.2389 C   0  0  0  0  0  0  0  0  0  0  0  0
   19.0636  -11.7712   19.9008 C   0  0  0  0  0  0  0  0  0  0  0  0
   17.9986  -11.9054   21.0028 C   0  0  1  0  0  0  0  0  0  0  0  0
   16.5903  -11.7153   20.3922 C   0  0  0  0  0  0  0  0  0  0  0  0
   15.9703  -10.5637   20.6732 N   0  0  0  0  0  0  0  0  0  0  0  0
   14.6326  -10.1687   20.2436 C   0  0  0  0  0  0  0  0  0  0  0  0
   13.5456  -10.5004   21.2503 C   0  0  0  0  0  0  0  0  0  0  0  0
   13.1875   -9.5651   22.2457 C   0  0  0  0  0  0  0  0  0  0  0  0
   12.1558   -9.8594   23.1591 C   0  0  0  0  0  0  0  0  0  0  0  0
   11.8374   -8.9663   24.1405 O   0  0  0  0  0  0  0  0  0  0  0  0
   11.4662  -11.0847   23.0721 C   0  0  0  0  0  0  0  0  0  0  0  0
   11.8375  -12.0298   22.0969 C   0  0  0  0  0  0  0  0  0  0  0  0
   12.8744  -11.7406   21.1888 C   0  0  0  0  0  0  0  0  0  0  0  0
   16.0966  -12.5803   19.6687 O   0  0  0  0  0  0  0  0  0  0  0  0
   17.7363  -15.1631   23.1762 C   0  0  2  0  0  0  0  0  0  0  0  0
   16.5025  -15.9504   23.1854 N   0  0  0  0  0  0  0  0  0  0  0  0
   18.3004  -15.0861   24.6185 C   0  0  0  0  0  0  0  0  0  0  0  0
   19.6619  -14.4246   24.7743 C   0  0  0  0  0  0  0  0  0  0  0  0
   20.8209  -15.0550   24.2699 C   0  0  0  0  0  0  0  0  0  0  0  0
   22.0786  -14.4321   24.3953 C   0  0  0  0  0  0  0  0  0  0  0  0
   22.1861  -13.1832   25.0349 C   0  0  0  0  0  0  0  0  0  0  0  0
   21.0376  -12.5639   25.5649 C   0  0  0  0  0  0  0  0  0  0  0  0
   19.7842  -13.1879   25.4424 C   0  0  0  0  0  0  0  0  0  0  0  0
  1  2  2  0
  2  3  1  0
  2 19  1  0
  3  7  1  0
  3  4  1  0
  4  5  1  0
  5  6  1  0
  6  7  1  0
  7  8  1  6
  8  9  1  0
  8 18  2  0
  9 10  1  0
 10 11  1  0
 11 17  1  0
 11 12  2  0
 12 13  1  0
 13 14  1  0
 13 15  2  0
 15 16  1  0
 16 17  2  0
 19 20  1  1
 19 21  1  0
 21 22  1  0
 22 27  1  0
 22 23  2  0
 23 24  1  0
 24 25  2  0
 25 26  1  0
 26 27  2  0
M  END
