lig_5
     RDKit          3D

 26 28  0  0  1  0  0  0  0  0999 V2000
   22.1738  -13.2216   25.0276 C   0  0  0  0  0  0  0  0  0  0  0  0
   22.0582  -14.4639   24.3750 C   0  0  0  0  0  0  0  0  0  0  0  0
   20.7957  -15.0758   24.2396 C   0  0  0  0  0  0  0  0  0  0  0  0
   19.6418  -14.4411   24.7485 C   0  0  0  0  0  0  0  0  0  0  0  0
   19.7689  -13.2065   25.4191 C   0  0  0  0  0  0  0  0  0  0  0  0
   21.0284  -12.5937   25.5522 C   0  0  0  0  0  0  0  0  0  0  0  0
   18.2776  -15.0962   24.5980 C   0  0  0  0  0  0  0  0  0  0  0  0
   17.7000  -15.1577   23.1649 C   0  0  2  0  0  0  0  0  0  0  0  0
   17.4077  -13.7495   22.5938 C   0  0  0  0  0  0  0  0  0  0  0  0
   16.4534  -13.1270   23.0651 O   0  0  0  0  0  0  0  0  0  0  0  0
   18.1866  -13.2175   21.6156 N   0  0  0  0  0  0  0  0  0  0  0  0
   19.4018  -13.8402   21.0848 C   0  0  0  0  0  0  0  0  0  0  0  0
   20.0912  -12.7981   20.2092 C   0  0  0  0  0  0  0  0  0  0  0  0
   19.0291  -11.7574   19.9012 C   0  0  0  0  0  0  0  0  0  0  0  0
   17.9687  -11.8877   21.0087 C   0  0  1  0  0  0  0  0  0  0  0  0
   16.5583  -11.6932   20.4065 C   0  0  0  0  0  0  0  0  0  0  0  0
   16.0575  -12.5646   19.6957 O   0  0  0  0  0  0  0  0  0  0  0  0
   15.9432  -10.5349   20.6735 N   0  0  0  0  0  0  0  0  0  0  0  0
   14.6040  -10.1636   20.2305 C   0  0  0  0  0  0  0  0  0  0  0  0
   13.5159  -10.4770   21.2434 C   0  0  0  0  0  0  0  0  0  0  0  0
   13.1064   -9.4908   22.1647 C   0  0  0  0  0  0  0  0  0  0  0  0
   12.0675   -9.7600   23.0752 C   0  0  0  0  0  0  0  0  0  0  0  0
   11.4383  -11.0184   23.0726 C   0  0  0  0  0  0  0  0  0  0  0  0
   11.8575  -12.0143   22.1715 C   0  0  0  0  0  0  0  0  0  0  0  0
   12.8980  -11.7457   21.2607 C   0  0  0  0  0  0  0  0  0  0  0  0
   16.4685  -15.9465   23.1858 N   0  0  0  0  0  0  0  0  0  0  0  0
  1  6  2  0
  1  2  1  0
  2  3  2  0
  3  4  1  0
  4  5  2  0
  4  7  1  0
  5  6  1  0
  7  8  1  0
  8  9  1  0
  8 26  1  1
  9 10  2  0
  9 11  1  0
 11 15  1  0
 11 12  1  0
 12 13  1  0
 13 14  1  0
 14 15  1  0
 15 16  1  6
 16 17  2  0
 16 18  1  0
 18 19  1  0
 19 20  1  0
 20 25  1  0
 20 21  2  0
 21 22  1  0
 22 23  2  0
 23 24  1  0
 24 25  2  0
M  END
