lig_6b
     RDKit          3D

 28 30  0  0  1  0  0  0  0  0999 V2000
   13.0810  -12.8757   20.2268 C   0  0  0  0  0  0  0  0  0  0  0  0
   12.8136  -11.7621   21.2233 C   0  0  0  0  0  0  0  0  0  0  0  0
   11.7979  -11.9655   22.1785 C   0  0  0  0  0  0  0  0  0  0  0  0
   11.4819  -10.9639   23.1121 C   0  0  0  0  0  0  0  0  0  0  0  0
   12.2157   -9.7638   23.1149 C   0  0  0  0  0  0  0  0  0  0  0  0
   13.2330   -9.5502   22.1744 C   0  0  0  0  0  0  0  0  0  0  0  0
   13.5395  -10.5401   21.2216 C   0  0  0  0  0  0  0  0  0  0  0  0
   14.6323  -10.2377   20.2056 C   0  0  0  0  0  0  0  0  0  0  0  0
   15.9734  -10.5721   20.6719 N   0  0  0  0  0  0  0  0  0  0  0  0
   16.6360  -11.6982   20.3747 C   0  0  0  0  0  0  0  0  0  0  0  0
   16.1880  -12.5637   19.6233 O   0  0  0  0  0  0  0  0  0  0  0  0
   18.0334  -11.8744   20.9991 C   0  0  2  0  0  0  0  0  0  0  0  0
   19.1066  -11.7559   19.9014 C   0  0  0  0  0  0  0  0  0  0  0  0
   20.1509  -12.8107   20.2196 C   0  0  0  0  0  0  0  0  0  0  0  0
   19.4390  -13.8484   21.0848 C   0  0  0  0  0  0  0  0  0  0  0  0
   18.2347  -13.2051   21.6092 N   0  0  0  0  0  0  0  0  0  0  0  0
   17.4459  -13.7251   22.5884 C   0  0  0  0  0  0  0  0  0  0  0  0
   16.4949  -13.0947   23.0535 O   0  0  0  0  0  0  0  0  0  0  0  0
   17.7209  -15.1358   23.1625 C   0  0  1  0  0  0  0  0  0  0  0  0
   18.2904  -15.0881   24.6004 C   0  0  0  0  0  0  0  0  0  0  0  0
   19.6597  -14.4449   24.7542 C   0  0  0  0  0  0  0  0  0  0  0  0
   20.8076  -15.0900   24.2499 C   0  0  0  0  0  0  0  0  0  0  0  0
   22.0713  -14.4768   24.3652 C   0  0  0  0  0  0  0  0  0  0  0  0
   22.1926  -13.2225   24.9967 C   0  0  0  0  0  0  0  0  0  0  0  0
   21.0515  -12.5885   25.5228 C   0  0  0  0  0  0  0  0  0  0  0  0
   19.7905  -13.2018   25.4088 C   0  0  0  0  0  0  0  0  0  0  0  0
   16.4797  -15.9100   23.1636 N   0  0  0  0  0  0  0  0  0  0  0  0
   11.9061   -8.5621   24.3027 Cl  0  0  0  0  0  0  0  0  0  0  0  0
  1  2  1  0
  2  7  2  0
  2  3  1  0
  3  4  2  0
  4  5  1  0
  5  6  2  0
  5 28  1  0
  6  7  1  0
  7  8  1  0
  8  9  1  0
  9 10  1  0
 10 11  2  0
 12 10  1  6
 12 16  1  0
 12 13  1  0
 13 14  1  0
 14 15  1  0
 15 16  1  0
 16 17  1  0
 17 18  2  0
 17 19  1  0
 19 20  1  0
 19 27  1  1
 20 21  1  0
 21 26  1  0
 21 22  2  0
 22 23  1  0
 23 24  2  0
 24 25  1  0
 25 26  2  0
M  END
