lig_7f
     RDKit          3D

 28 30  0  0  1  0  0  0  0  0999 V2000
   16.1227  -12.5641   19.6913 O   0  0  0  0  0  0  0  0  0  0  0  0
   16.6262  -11.6990   20.4081 C   0  0  0  0  0  0  0  0  0  0  0  0
   18.0328  -11.9011   21.0142 C   0  0  2  0  0  0  0  0  0  0  0  0
   19.0888  -11.7595   19.9035 C   0  0  0  0  0  0  0  0  0  0  0  0
   20.1538  -12.7967   20.2061 C   0  0  0  0  0  0  0  0  0  0  0  0
   19.4600  -13.8582   21.0557 C   0  0  0  0  0  0  0  0  0  0  0  0
   18.2481  -13.2418   21.6009 N   0  0  0  0  0  0  0  0  0  0  0  0
   17.4742  -13.7878   22.5759 C   0  0  0  0  0  0  0  0  0  0  0  0
   17.7544  -15.2195   23.1010 C   0  0  2  0  0  0  0  0  0  0  0  0
   16.5283  -16.0241   23.0742 N   0  0  0  0  0  0  0  0  0  0  0  0
   18.3275  -15.2113   24.5388 C   0  0  0  0  0  0  0  0  0  0  0  0
   19.6722  -14.5221   24.7218 C   0  0  0  0  0  0  0  0  0  0  0  0
   19.7520  -13.2863   25.3968 C   0  0  0  0  0  0  0  0  0  0  0  0
   20.9901  -12.6329   25.5450 C   0  0  0  0  0  0  0  0  0  0  0  0
   22.1606  -13.2236   25.0324 C   0  0  0  0  0  0  0  0  0  0  0  0
   22.0927  -14.4684   24.3788 C   0  0  0  0  0  0  0  0  0  0  0  0
   20.8516  -15.1189   24.2287 C   0  0  0  0  0  0  0  0  0  0  0  0
   16.5331  -13.1646   23.0709 O   0  0  0  0  0  0  0  0  0  0  0  0
   16.0151  -10.5384   20.6723 N   0  0  0  0  0  0  0  0  0  0  0  0
   14.6789  -10.1661   20.2249 C   0  0  0  0  0  0  0  0  0  0  0  0
   13.5992  -10.4658   21.2477 C   0  0  0  0  0  0  0  0  0  0  0  0
   13.2440   -9.4752   22.1843 C   0  0  0  0  0  0  0  0  0  0  0  0
   12.2121   -9.7060   23.0987 C   0  0  0  0  0  0  0  0  0  0  0  0
   11.5342  -10.9359   23.0938 C   0  0  0  0  0  0  0  0  0  0  0  0
   10.3549  -11.0915   24.0193 C   0  0  0  0  0  0  0  0  0  0  0  0
   10.6374  -10.9638   25.3776 O   0  0  0  0  0  0  0  0  0  0  0  0
   11.9138  -11.9611   22.1977 C   0  0  0  0  0  0  0  0  0  0  0  0
   12.9501  -11.7200   21.2715 C   0  0  0  0  0  0  0  0  0  0  0  0
  1  2  2  0
  3  2  1  6
  2 19  1  0
  3  7  1  0
  3  4  1  0
  4  5  1  0
  5  6  1  0
  6  7  1  0
  7  8  1  0
  8  9  1  0
  8 18  2  0
  9 10  1  1
  9 11  1  0
 11 12  1  0
 12 17  1  0
 12 13  2  0
 13 14  1  0
 14 15  2  0
 15 16  1  0
 16 17  2  0
 19 20  1  0
 20 21  1  0
 21 28  1  0
 21 22  2  0
 22 23  1  0
 23 24  2  0
 24 25  1  0
 24 27  1  0
 25 26  1  0
 27 28  2  0
M  END
