lig_1a
     RDKit          3D

 27 29  0  0  1  0  0  0  0  0999 V2000
   22.1034  -13.3182   25.0517 C   0  0  0  0  0  0  0  0  0  0  0  0
   21.9863  -14.5499   24.3765 C   0  0  0  0  0  0  0  0  0  0  0  0
   20.7259  -15.1613   24.2281 C   0  0  0  0  0  0  0  0  0  0  0  0
   19.5663  -14.5380   24.7387 C   0  0  0  0  0  0  0  0  0  0  0  0
   19.6924  -13.3156   25.4331 C   0  0  0  0  0  0  0  0  0  0  0  0
   20.9511  -12.7048   25.5825 C   0  0  0  0  0  0  0  0  0  0  0  0
   18.1991  -15.1789   24.5470 C   0  0  0  0  0  0  0  0  0  0  0  0
   17.6347  -15.1717   23.1040 C   0  0  2  0  0  0  0  0  0  0  0  0
   17.3952  -13.7353   22.5881 C   0  0  0  0  0  0  0  0  0  0  0  0
   16.4573  -13.1052   23.0648 O   0  0  0  0  0  0  0  0  0  0  0  0
   18.1921  -13.2033   21.6242 N   0  0  0  0  0  0  0  0  0  0  0  0
   19.4048  -13.8287   21.0936 C   0  0  0  0  0  0  0  0  0  0  0  0
   20.1073  -12.7792   20.2325 C   0  0  0  0  0  0  0  0  0  0  0  0
   19.0497  -11.7363   19.9195 C   0  0  0  0  0  0  0  0  0  0  0  0
   17.9880  -11.8660   21.0266 C   0  0  1  0  0  0  0  0  0  0  0  0
   16.5798  -11.6790   20.4155 C   0  0  0  0  0  0  0  0  0  0  0  0
   16.0830  -12.5602   19.7123 O   0  0  0  0  0  0  0  0  0  0  0  0
   15.9576  -10.5252   20.6722 N   0  0  0  0  0  0  0  0  0  0  0  0
   14.6200  -10.1635   20.2164 C   0  0  0  0  0  0  0  0  0  0  0  0
   13.5279  -10.4660   21.2254 C   0  0  0  0  0  0  0  0  0  0  0  0
   12.8668  -11.7124   21.2079 C   0  0  0  0  0  0  0  0  0  0  0  0
   11.8374  -11.9739   22.1334 C   0  0  0  0  0  0  0  0  0  0  0  0
   11.4654  -10.9914   23.0758 C   0  0  0  0  0  0  0  0  0  0  0  0
   12.1532   -9.7635   23.1201 C   0  0  0  0  0  0  0  0  0  0  0  0
   13.1800   -9.4995   22.1958 C   0  0  0  0  0  0  0  0  0  0  0  0
   11.8479   -8.8396   24.0624 F   0  0  0  0  0  0  0  0  0  0  0  0
   16.3761  -15.9101   23.0719 N   0  0  0  0  0  0  0  0  0  0  0  0
  1  6  2  0
  1  2  1  0
  2  3  2  0
  3  4  1  0
  4  5  2  0
  4  7  1  0
  5  6  1  0
  7  8  1  0
  8  9  1  0
  8 27  1  1
  9 10  2  0
  9 11  1  0
 11 15  1  0
 11 12  1  0
 12 13  1  0
 13 14  1  0
 14 15  1  0
 15 16  1  6
 16 17  2  0
 16 18  1  0
 18 19  1  0
 19 20  1  0
 20 25  1  0
 20 21  2  0
 21 22  1  0
 22 23  2  0
 23 24  1  0
 24 25  2  0
 24 26  1  0
M  END
