lig_7d
     RDKit          3D

 27 29  0  0  1  0  0  0  0  0999 V2000
   16.5505  -13.0822   23.0633 O   0  0  0  0  0  0  0  0  0  0  0  0
   17.4683  -13.7330   22.5608 C   0  0  0  0  0  0  0  0  0  0  0  0
   18.2539  -13.2137   21.5807 N   0  0  0  0  0  0  0  0  0  0  0  0
   19.4622  -13.8594   21.0537 C   0  0  0  0  0  0  0  0  0  0  0  0
   20.1695  -12.8165   20.2031 C   0  0  0  0  0  0  0  0  0  0  0  0
   19.1263  -11.7588   19.8821 C   0  0  0  0  0  0  0  0  0  0  0  0
   18.0510  -11.8777   20.9752 C   0  0  1  0  0  0  0  0  0  0  0  0
   16.6441  -11.6759   20.3552 C   0  0  0  0  0  0  0  0  0  0  0  0
   16.0075  -10.5310   20.6619 N   0  0  0  0  0  0  0  0  0  0  0  0
   14.6338  -10.1356   20.3211 C   0  0  0  0  0  0  0  0  0  0  0  0
   13.6090  -10.5889   21.3906 C   0  0  2  0  0  0  0  0  0  0  0  0
   13.5440  -12.1513   21.4526 C   0  0  0  0  0  0  0  0  0  0  0  0
   12.5355  -12.6897   22.4749 C   0  0  0  0  0  0  0  0  0  0  0  0
   11.1848  -12.1530   22.1371 C   0  0  0  0  0  0  0  0  0  0  0  0
   11.1982  -10.6278   22.2333 C   0  0  1  0  0  0  0  0  0  0  0  0
   11.2938  -10.1638   23.6307 N   0  0  0  0  0  0  0  0  0  0  0  0
   12.2176   -9.9705   21.2791 C   0  0  0  0  0  0  0  0  0  0  0  0
   16.1511  -12.5535   19.6399 O   0  0  0  0  0  0  0  0  0  0  0  0
   17.6836  -15.1745   23.0765 C   0  0  2  0  0  0  0  0  0  0  0  0
   16.4015  -15.8820   23.0723 N   0  0  0  0  0  0  0  0  0  0  0  0
   18.2819  -15.2137   24.5023 C   0  0  0  0  0  0  0  0  0  0  0  0
   19.6455  -14.5628   24.6817 C   0  0  0  0  0  0  0  0  0  0  0  0
   19.7646  -13.3252   25.3483 C   0  0  0  0  0  0  0  0  0  0  0  0
   21.0206  -12.7046   25.4877 C   0  0  0  0  0  0  0  0  0  0  0  0
   22.1723  -13.3284   24.9669 C   0  0  0  0  0  0  0  0  0  0  0  0
   22.0638  -14.5745   24.3203 C   0  0  0  0  0  0  0  0  0  0  0  0
   20.8058  -15.1944   24.1864 C   0  0  0  0  0  0  0  0  0  0  0  0
  1  2  2  0
  2  3  1  0
  2 19  1  0
  3  7  1  0
  3  4  1  0
  4  5  1  0
  5  6  1  0
  6  7  1  0
  7  8  1  6
  8  9  1  0
  8 18  2  0
  9 10  1  0
 11 10  1  6
 11 17  1  0
 11 12  1  0
 12 13  1  0
 13 14  1  0
 14 15  1  0
 15 16  1  1
 15 17  1  0
 19 20  1  1
 19 21  1  0
 21 22  1  0
 22 27  1  0
 22 23  2  0
 23 24  1  0
 24 25  2  0
 25 26  1  0
 26 27  2  0
M  CHG  1  16   1
M  END
