lig_6a
     RDKit          3D

 28 30  0  0  1  0  0  0  0  0999 V2000
   22.2094  -13.2259   24.9890 C   0  0  0  0  0  0  0  0  0  0  0  0
   21.0685  -12.5810   25.5015 C   0  0  0  0  0  0  0  0  0  0  0  0
   19.8040  -13.1898   25.3809 C   0  0  0  0  0  0  0  0  0  0  0  0
   19.6719  -14.4360   24.7351 C   0  0  0  0  0  0  0  0  0  0  0  0
   20.8215  -15.0880   24.2387 C   0  0  0  0  0  0  0  0  0  0  0  0
   22.0877  -14.4806   24.3627 C   0  0  0  0  0  0  0  0  0  0  0  0
   18.3033  -15.0863   24.5933 C   0  0  0  0  0  0  0  0  0  0  0  0
   17.7218  -15.1433   23.1603 C   0  0  2  0  0  0  0  0  0  0  0  0
   17.4351  -13.7347   22.5909 C   0  0  0  0  0  0  0  0  0  0  0  0
   16.4836  -13.1087   23.0698 O   0  0  0  0  0  0  0  0  0  0  0  0
   18.2165  -13.2017   21.6132 N   0  0  0  0  0  0  0  0  0  0  0  0
   19.4242  -13.8367   21.0771 C   0  0  0  0  0  0  0  0  0  0  0  0
   20.1297  -12.7826   20.2236 C   0  0  0  0  0  0  0  0  0  0  0  0
   19.0777  -11.7377   19.9093 C   0  0  0  0  0  0  0  0  0  0  0  0
   18.0074  -11.8677   21.0120 C   0  0  1  0  0  0  0  0  0  0  0  0
   16.6070  -11.6932   20.3867 C   0  0  0  0  0  0  0  0  0  0  0  0
   16.1587  -12.5638   19.6392 O   0  0  0  0  0  0  0  0  0  0  0  0
   15.9375  -10.5647   20.6723 N   0  0  0  0  0  0  0  0  0  0  0  0
   14.5929  -10.2417   20.1998 C   0  0  0  0  0  0  0  0  0  0  0  0
   13.5028  -10.5322   21.2203 C   0  0  0  0  0  0  0  0  0  0  0  0
   13.2082   -9.5505   22.1902 C   0  0  0  0  0  0  0  0  0  0  0  0
   12.1845   -9.7636   23.1338 C   0  0  0  0  0  0  0  0  0  0  0  0
   11.4458  -10.9639   23.1190 C   0  0  0  0  0  0  0  0  0  0  0  0
   11.7511  -11.9561   22.1706 C   0  0  0  0  0  0  0  0  0  0  0  0
   12.7623  -11.7433   21.2136 C   0  0  0  0  0  0  0  0  0  0  0  0
   13.0376  -12.9676   20.0264 Cl  0  0  0  0  0  0  0  0  0  0  0  0
   11.8514   -8.5646   24.3277 Cl  0  0  0  0  0  0  0  0  0  0  0  0
   16.4901  -15.9301   23.1809 N   0  0  0  0  0  0  0  0  0  0  0  0
  1  6  2  0
  1  2  1  0
  2  3  2  0
  3  4  1  0
  4  5  2  0
  4  7  1  0
  5  6  1  0
  7  8  1  0
  8  9  1  0
  8 28  1  1
  9 10  2  0
  9 11  1  0
 11 15  1  0
 11 12  1  0
 12 13  1  0
 13 14  1  0
 14 15  1  0
 15 16  1  6
 16 17  2  0
 16 18  1  0
 18 19  1  0
 19 20  1  0
 20 25  1  0
 20 21  2  0
 21 22  1  0
 22 23  2  0
 22 27  1  0
 23 24  1  0
 24 25  2  0
 25 26  1  0
M  END
