lig_2e
     RDKit          3D

 29 31  0  0  1  0  0  0  0  0999 V2000
   16.4995  -13.0904   23.0545 O   0  0  0  0  0  0  0  0  0  0  0  0
   17.4391  -13.7301   22.5791 C   0  0  0  0  0  0  0  0  0  0  0  0
   18.2382  -13.2075   21.6115 N   0  0  0  0  0  0  0  0  0  0  0  0
   19.4426  -13.8504   21.0832 C   0  0  0  0  0  0  0  0  0  0  0  0
   20.1491  -12.8200   20.2080 C   0  0  0  0  0  0  0  0  0  0  0  0
   19.1096  -11.7583   19.8987 C   0  0  0  0  0  0  0  0  0  0  0  0
   18.0404  -11.8778   21.0003 C   0  0  1  0  0  0  0  0  0  0  0  0
   16.6363  -11.6978   20.3827 C   0  0  0  0  0  0  0  0  0  0  0  0
   15.9915  -10.5636   20.6721 N   0  0  0  0  0  0  0  0  0  0  0  0
   14.6533  -10.2165   20.2066 C   0  0  0  0  0  0  0  0  0  0  0  0
   13.5685  -10.5231   21.2233 C   0  0  0  0  0  0  0  0  0  0  0  0
   13.2350   -9.5494   22.1682 C   0  0  0  0  0  0  0  0  0  0  0  0
   12.2046   -9.8034   23.0847 C   0  0  0  0  0  0  0  0  0  0  0  0
   11.8894   -8.8022   24.0931 N   0  0  0  0  0  0  0  0  0  0  0  0
   12.6428   -7.8513   24.2722 O   0  0  0  0  0  0  0  0  0  0  0  0
   10.8443   -8.9641   24.6725 O   0  0  0  0  0  0  0  0  0  0  0  0
   11.5033  -11.0334   23.0430 C   0  0  0  0  0  0  0  0  0  0  0  0
   11.8512  -12.0158   22.1005 C   0  0  0  0  0  0  0  0  0  0  0  0
   12.8921  -11.7597   21.1914 C   0  0  0  0  0  0  0  0  0  0  0  0
   16.1614  -12.5661   19.6496 O   0  0  0  0  0  0  0  0  0  0  0  0
   17.6641  -15.1650   23.1053 C   0  0  2  0  0  0  0  0  0  0  0  0
   16.3911  -15.8873   23.0722 N   0  0  0  0  0  0  0  0  0  0  0  0
   18.2308  -15.1843   24.5467 C   0  0  0  0  0  0  0  0  0  0  0  0
   19.5943  -14.5393   24.7415 C   0  0  0  0  0  0  0  0  0  0  0  0
   20.7573  -15.1629   24.2408 C   0  0  0  0  0  0  0  0  0  0  0  0
   22.0158  -14.5486   24.4024 C   0  0  0  0  0  0  0  0  0  0  0  0
   22.1166  -13.3132   25.0711 C   0  0  0  0  0  0  0  0  0  0  0  0
   20.9624  -12.6979   25.5923 C   0  0  0  0  0  0  0  0  0  0  0  0
   19.7073  -13.3164   25.4338 C   0  0  0  0  0  0  0  0  0  0  0  0
  1  2  2  0
  2  3  1  0
  2 21  1  0
  3  7  1  0
  3  4  1  0
  4  5  1  0
  5  6  1  0
  6  7  1  0
  7  8  1  6
  8  9  1  0
  8 20  2  0
  9 10  1  0
 10 11  1  0
 11 19  1  0
 11 12  2  0
 12 13  1  0
 13 14  1  0
 13 17  2  0
 14 15  1  0
 14 16  2  0
 17 18  1  0
 18 19  2  0
 21 22  1  1
 21 23  1  0
 23 24  1  0
 24 29  1  0
 24 25  2  0
 25 26  1  0
 26 27  2  0
 27 28  1  0
 28 29  2  0
M  CHG  2  14   1  15  -1
M  END
