lig_7c
     RDKit          3D

 27 29  0  0  1  0  0  0  0  0999 V2000
   16.1318  -12.5671   19.6514 O   0  0  0  0  0  0  0  0  0  0  0  0
   16.5961  -11.6909   20.3813 C   0  0  0  0  0  0  0  0  0  0  0  0
   18.0063  -11.8615   20.9971 C   0  0  2  0  0  0  0  0  0  0  0  0
   19.0826  -11.7318   19.8998 C   0  0  0  0  0  0  0  0  0  0  0  0
   20.1299  -12.7888   20.2070 C   0  0  0  0  0  0  0  0  0  0  0  0
   19.4270  -13.8298   21.0720 C   0  0  0  0  0  0  0  0  0  0  0  0
   18.2180  -13.1958   21.6047 N   0  0  0  0  0  0  0  0  0  0  0  0
   17.4262  -13.7329   22.5728 C   0  0  0  0  0  0  0  0  0  0  0  0
   17.7206  -15.1382   23.1537 C   0  0  2  0  0  0  0  0  0  0  0  0
   16.4929  -15.9224   23.1643 N   0  0  0  0  0  0  0  0  0  0  0  0
   18.2861  -15.0818   24.5932 C   0  0  0  0  0  0  0  0  0  0  0  0
   19.6554  -14.4382   24.7429 C   0  0  0  0  0  0  0  0  0  0  0  0
   20.8025  -15.0833   24.2324 C   0  0  0  0  0  0  0  0  0  0  0  0
   22.0673  -14.4750   24.3534 C   0  0  0  0  0  0  0  0  0  0  0  0
   22.1899  -13.2253   24.9909 C   0  0  0  0  0  0  0  0  0  0  0  0
   21.0496  -12.5834   25.5114 C   0  0  0  0  0  0  0  0  0  0  0  0
   19.7887  -13.1946   25.3931 C   0  0  0  0  0  0  0  0  0  0  0  0
   16.4630  -13.1154   23.0339 O   0  0  0  0  0  0  0  0  0  0  0  0
   15.9304  -10.5632   20.6675 N   0  0  0  0  0  0  0  0  0  0  0  0
   14.5872  -10.2233   20.2049 C   0  0  0  0  0  0  0  0  0  0  0  0
   13.4934  -10.4984   21.2280 C   0  0  0  0  0  0  0  0  0  0  0  0
   12.7606  -11.7127   21.2402 C   0  0  0  0  0  0  0  0  0  0  0  0
   13.0387  -12.9667   20.0855 Cl  0  0  0  0  0  0  0  0  0  0  0  0
   11.7525  -11.9132   22.2009 C   0  0  0  0  0  0  0  0  0  0  0  0
   11.4368  -10.9024   23.1243 C   0  0  0  0  0  0  0  0  0  0  0  0
   12.1547   -9.6943   23.1118 C   0  0  0  0  0  0  0  0  0  0  0  0
   13.1835   -9.4961   22.1734 C   0  0  0  0  0  0  0  0  0  0  0  0
  1  2  2  0
  3  2  1  6
  2 19  1  0
  3  7  1  0
  3  4  1  0
  4  5  1  0
  5  6  1  0
  6  7  1  0
  7  8  1  0
  8  9  1  0
  8 18  2  0
  9 10  1  1
  9 11  1  0
 11 12  1  0
 12 17  1  0
 12 13  2  0
 13 14  1  0
 14 15  2  0
 15 16  1  0
 16 17  2  0
 19 20  1  0
 20 21  1  0
 21 27  1  0
 21 22  2  0
 22 23  1  0
 22 24  1  0
 24 25  2  0
 25 26  1  0
 26 27  2  0
M  END
