lig_6c
     RDKit          3D

 29 31  0  0  1  0  0  0  0  0999 V2000
   16.1687  -12.5643   19.6355 O   0  0  0  0  0  0  0  0  0  0  0  0
   16.6296  -11.6959   20.3789 C   0  0  0  0  0  0  0  0  0  0  0  0
   18.0297  -11.8727   21.0041 C   0  0  2  0  0  0  0  0  0  0  0  0
   19.0995  -11.7576   19.9029 C   0  0  0  0  0  0  0  0  0  0  0  0
   20.1430  -12.8129   20.2177 C   0  0  0  0  0  0  0  0  0  0  0  0
   19.4298  -13.8457   21.0867 C   0  0  0  0  0  0  0  0  0  0  0  0
   18.2260  -13.2029   21.6158 N   0  0  0  0  0  0  0  0  0  0  0  0
   17.4283  -13.7221   22.5860 C   0  0  0  0  0  0  0  0  0  0  0  0
   17.6635  -15.1519   23.1178 C   0  0  2  0  0  0  0  0  0  0  0  0
   16.3998  -15.8883   23.0716 N   0  0  0  0  0  0  0  0  0  0  0  0
   18.2184  -15.1524   24.5650 C   0  0  0  0  0  0  0  0  0  0  0  0
   19.5825  -14.5042   24.7629 C   0  0  0  0  0  0  0  0  0  0  0  0
   20.7452  -15.1196   24.2578 C   0  0  0  0  0  0  0  0  0  0  0  0
   22.0009  -14.4954   24.4038 C   0  0  0  0  0  0  0  0  0  0  0  0
   22.1028  -13.2588   25.0685 C   0  0  0  0  0  0  0  0  0  0  0  0
   20.9490  -12.6543   25.6014 C   0  0  0  0  0  0  0  0  0  0  0  0
   19.6969  -13.2802   25.4535 C   0  0  0  0  0  0  0  0  0  0  0  0
   16.4868  -13.0822   23.0640 O   0  0  0  0  0  0  0  0  0  0  0  0
   15.9769  -10.5616   20.6718 N   0  0  0  0  0  0  0  0  0  0  0  0
   14.6412  -10.2086   20.2027 C   0  0  0  0  0  0  0  0  0  0  0  0
   13.5483  -10.5045   21.2173 C   0  0  0  0  0  0  0  0  0  0  0  0
   12.8425  -11.7303   21.1924 C   0  0  0  0  0  0  0  0  0  0  0  0
   13.1806  -12.6448   20.2166 O   0  0  0  0  0  0  0  0  0  0  0  0
   12.4985  -13.8900   20.1924 C   0  0  0  0  0  0  0  0  0  0  0  0
   11.8192  -11.9475   22.1506 C   0  0  0  0  0  0  0  0  0  0  0  0
   11.5030  -10.9564   23.1002 C   0  0  0  0  0  0  0  0  0  0  0  0
   12.2267   -9.7538   23.1209 C   0  0  0  0  0  0  0  0  0  0  0  0
   11.9113   -8.5673   24.3247 Cl  0  0  0  0  0  0  0  0  0  0  0  0
   13.2420   -9.5262   22.1808 C   0  0  0  0  0  0  0  0  0  0  0  0
  1  2  2  0
  3  2  1  6
  2 19  1  0
  3  7  1  0
  3  4  1  0
  4  5  1  0
  5  6  1  0
  6  7  1  0
  7  8  1  0
  8  9  1  0
  8 18  2  0
  9 10  1  1
  9 11  1  0
 11 12  1  0
 12 17  1  0
 12 13  2  0
 13 14  1  0
 14 15  2  0
 15 16  1  0
 16 17  2  0
 19 20  1  0
 20 21  1  0
 21 29  1  0
 21 22  2  0
 22 23  1  0
 22 25  1  0
 23 24  1  0
 25 26  2  0
 26 27  1  0
 27 28  1  0
 27 29  2  0
M  END
