lig_2a
     RDKit          3D

 30 32  0  0  1  0  0  0  0  0999 V2000
   16.5204  -13.1429   23.0721 O   0  0  0  0  0  0  0  0  0  0  0  0
   17.4660  -13.7636   22.5844 C   0  0  0  0  0  0  0  0  0  0  0  0
   18.2368  -13.2233   21.6051 N   0  0  0  0  0  0  0  0  0  0  0  0
   19.4446  -13.8452   21.0578 C   0  0  0  0  0  0  0  0  0  0  0  0
   20.1353  -12.7880   20.2039 C   0  0  0  0  0  0  0  0  0  0  0  0
   19.0706  -11.7496   19.9009 C   0  0  0  0  0  0  0  0  0  0  0  0
   18.0173  -11.8864   21.0143 C   0  0  1  0  0  0  0  0  0  0  0  0
   16.6057  -11.6888   20.4164 C   0  0  0  0  0  0  0  0  0  0  0  0
   16.0008  -10.5224   20.6723 N   0  0  0  0  0  0  0  0  0  0  0  0
   14.6633  -10.1439   20.2325 C   0  0  0  0  0  0  0  0  0  0  0  0
   13.5803  -10.4342   21.2552 C   0  0  0  0  0  0  0  0  0  0  0  0
   13.2382   -9.4457   22.2050 C   0  0  0  0  0  0  0  0  0  0  0  0
   12.2049   -9.6796   23.1329 C   0  0  0  0  0  0  0  0  0  0  0  0
   11.8370   -8.6365   24.1895 C   0  0  0  0  0  0  0  0  0  0  0  0
   11.8374   -7.3653   23.8723 F   0  0  0  0  0  0  0  0  0  0  0  0
   10.6507   -8.9639   24.6722 F   0  0  0  0  0  0  0  0  0  0  0  0
   12.6374   -8.5638   25.1729 F   0  0  0  0  0  0  0  0  0  0  0  0
   11.5158  -10.9167   23.0888 C   0  0  0  0  0  0  0  0  0  0  0  0
   11.8698  -11.9102   22.1588 C   0  0  0  0  0  0  0  0  0  0  0  0
   12.9053  -11.6702   21.2398 C   0  0  0  0  0  0  0  0  0  0  0  0
   16.0930  -12.5648   19.7192 O   0  0  0  0  0  0  0  0  0  0  0  0
   17.7557  -15.1880   23.1168 C   0  0  2  0  0  0  0  0  0  0  0  0
   16.5363  -15.9959   23.0723 N   0  0  0  0  0  0  0  0  0  0  0  0
   18.3110  -15.1706   24.5613 C   0  0  0  0  0  0  0  0  0  0  0  0
   19.6567  -14.4852   24.7512 C   0  0  0  0  0  0  0  0  0  0  0  0
   20.8340  -15.0751   24.2436 C   0  0  0  0  0  0  0  0  0  0  0  0
   22.0756  -14.4276   24.3990 C   0  0  0  0  0  0  0  0  0  0  0  0
   22.1477  -13.1934   25.0723 C   0  0  0  0  0  0  0  0  0  0  0  0
   20.9802  -12.6120   25.6017 C   0  0  0  0  0  0  0  0  0  0  0  0
   19.7409  -13.2616   25.4473 C   0  0  0  0  0  0  0  0  0  0  0  0
  1  2  2  0
  2  3  1  0
  2 22  1  0
  3  7  1  0
  3  4  1  0
  4  5  1  0
  5  6  1  0
  6  7  1  0
  7  8  1  6
  8  9  1  0
  8 21  2  0
  9 10  1  0
 10 11  1  0
 11 20  1  0
 11 12  2  0
 12 13  1  0
 13 14  1  0
 13 18  2  0
 14 15  1  0
 14 16  1  0
 14 17  1  0
 18 19  1  0
 19 20  2  0
 22 23  1  1
 22 24  1  0
 24 25  1  0
 25 30  1  0
 25 26  2  0
 26 27  1  0
 27 28  2  0
 28 29  1  0
 29 30  2  0
M  END
