lig_1c
     RDKit          3D

 27 29  0  0  1  0  0  0  0  0999 V2000
   22.0849  -13.3273   25.0479 C   0  0  0  0  0  0  0  0  0  0  0  0
   21.9732  -14.5616   24.3819 C   0  0  0  0  0  0  0  0  0  0  0  0
   20.7121  -15.1736   24.2349 C   0  0  0  0  0  0  0  0  0  0  0  0
   19.5572  -14.5473   24.7457 C   0  0  0  0  0  0  0  0  0  0  0  0
   19.6792  -13.3248   25.4378 C   0  0  0  0  0  0  0  0  0  0  0  0
   20.9399  -12.7115   25.5822 C   0  0  0  0  0  0  0  0  0  0  0  0
   18.1912  -15.1870   24.5521 C   0  0  0  0  0  0  0  0  0  0  0  0
   17.6294  -15.1867   23.1095 C   0  0  2  0  0  0  0  0  0  0  0  0
   17.3954  -13.7553   22.5781 C   0  0  0  0  0  0  0  0  0  0  0  0
   16.4631  -13.1114   23.0630 O   0  0  0  0  0  0  0  0  0  0  0  0
   18.1861  -13.2335   21.6047 N   0  0  0  0  0  0  0  0  0  0  0  0
   19.3835  -13.8733   21.0543 C   0  0  0  0  0  0  0  0  0  0  0  0
   20.0981  -12.8242   20.2048 C   0  0  0  0  0  0  0  0  0  0  0  0
   19.0477  -11.7708   19.9003 C   0  0  0  0  0  0  0  0  0  0  0  0
   17.9884  -11.8964   21.0081 C   0  0  1  0  0  0  0  0  0  0  0  0
   16.5799  -11.6930   20.4038 C   0  0  0  0  0  0  0  0  0  0  0  0
   16.0807  -12.5647   19.6933 O   0  0  0  0  0  0  0  0  0  0  0  0
   15.9677  -10.5306   20.6720 N   0  0  0  0  0  0  0  0  0  0  0  0
   14.6383  -10.1562   20.2110 C   0  0  0  0  0  0  0  0  0  0  0  0
   13.5627  -10.4522   21.2361 C   0  0  0  0  0  0  0  0  0  0  0  0
   12.8588  -11.6745   21.2003 C   0  0  0  0  0  0  0  0  0  0  0  0
   11.8375  -11.9290   22.1354 C   0  0  0  0  0  0  0  0  0  0  0  0
   11.5086  -10.9543   23.0972 C   0  0  0  0  0  0  0  0  0  0  0  0
   12.2333   -9.7488   23.1549 C   0  0  0  0  0  0  0  0  0  0  0  0
   13.2575   -9.4940   22.2242 C   0  0  0  0  0  0  0  0  0  0  0  0
   11.8586   -8.4734   24.5148 Br  0  0  0  0  0  0  0  0  0  0  0  0
   16.3588  -15.9130   23.0720 N   0  0  0  0  0  0  0  0  0  0  0  0
  1  6  2  0
  1  2  1  0
  2  3  2  0
  3  4  1  0
  4  5  2  0
  4  7  1  0
  5  6  1  0
  7  8  1  0
  8  9  1  0
  8 27  1  1
  9 10  2  0
  9 11  1  0
 11 15  1  0
 11 12  1  0
 12 13  1  0
 13 14  1  0
 14 15  1  0
 15 16  1  6
 16 17  2  0
 16 18  1  0
 18 19  1  0
 19 20  1  0
 20 25  1  0
 20 21  2  0
 21 22  1  0
 22 23  2  0
 23 24  1  0
 24 25  2  0
 24 26  1  0
M  END
