lig_7b
     RDKit          3D

 27 29  0  0  1  0  0  0  0  0999 V2000
   16.1022  -12.5639   19.7057 O   0  0  0  0  0  0  0  0  0  0  0  0
   16.6033  -11.6930   20.4172 C   0  0  0  0  0  0  0  0  0  0  0  0
   18.0094  -11.8917   21.0210 C   0  0  2  0  0  0  0  0  0  0  0  0
   19.0683  -11.7659   19.9084 C   0  0  0  0  0  0  0  0  0  0  0  0
   20.1310  -12.7962   20.2318 C   0  0  0  0  0  0  0  0  0  0  0  0
   19.4335  -13.8478   21.0902 C   0  0  0  0  0  0  0  0  0  0  0  0
   18.2220  -13.2237   21.6275 N   0  0  0  0  0  0  0  0  0  0  0  0
   17.4421  -13.7539   22.6040 C   0  0  0  0  0  0  0  0  0  0  0  0
   17.7238  -15.1627   23.1720 C   0  0  2  0  0  0  0  0  0  0  0  0
   16.4874  -15.9420   23.1870 N   0  0  0  0  0  0  0  0  0  0  0  0
   18.3016  -15.1049   24.6076 C   0  0  0  0  0  0  0  0  0  0  0  0
   19.6676  -14.4507   24.7590 C   0  0  0  0  0  0  0  0  0  0  0  0
   20.8241  -15.0879   24.2589 C   0  0  0  0  0  0  0  0  0  0  0  0
   22.0830  -14.4693   24.3811 C   0  0  0  0  0  0  0  0  0  0  0  0
   22.1945  -13.2140   25.0126 C   0  0  0  0  0  0  0  0  0  0  0  0
   21.0448  -12.5835   25.5263 C   0  0  0  0  0  0  0  0  0  0  0  0
   19.7868  -13.2008   25.4030 C   0  0  0  0  0  0  0  0  0  0  0  0
   16.4870  -13.1311   23.0722 O   0  0  0  0  0  0  0  0  0  0  0  0
   15.9850  -10.5316   20.6721 N   0  0  0  0  0  0  0  0  0  0  0  0
   14.6471  -10.1628   20.2147 C   0  0  0  0  0  0  0  0  0  0  0  0
   13.5601  -10.4778   21.2238 C   0  0  0  0  0  0  0  0  0  0  0  0
   13.1941   -9.4901   22.1612 C   0  0  0  0  0  0  0  0  0  0  0  0
   12.1798   -9.7633   23.0908 C   0  0  0  0  0  0  0  0  0  0  0  0
   11.5401  -11.0150   23.0782 C   0  0  0  0  0  0  0  0  0  0  0  0
   10.3736  -11.3721   24.2721 Cl  0  0  0  0  0  0  0  0  0  0  0  0
   11.8983  -12.0025   22.1456 C   0  0  0  0  0  0  0  0  0  0  0  0
   12.9124  -11.7323   21.2097 C   0  0  0  0  0  0  0  0  0  0  0  0
  1  2  2  0
  3  2  1  6
  2 19  1  0
  3  7  1  0
  3  4  1  0
  4  5  1  0
  5  6  1  0
  6  7  1  0
  7  8  1  0
  8  9  1  0
  8 18  2  0
  9 10  1  1
  9 11  1  0
 11 12  1  0
 12 17  1  0
 12 13  2  0
 13 14  1  0
 14 15  2  0
 15 16  1  0
 16 17  2  0
 19 20  1  0
 20 21  1  0
 21 27  1  0
 21 22  2  0
 22 23  1  0
 23 24  2  0
 24 25  1  0
 24 26  1  0
 26 27  2  0
M  END
